Info: SIMULATION PARAMETERS:
Info: TIMESTEP               1
Info: NUMBER OF STEPS        1000
Info: STEPS PER CYCLE        10
Info: FIRST LDB TIMESTEP     50
Info: LAST LDB TIMESTEP     -1
Info: HOM BACKGROUND SCALING 1
Info: MIN ATOMS PER PATCH    40
Info: VELOCITY FILE          /scratch/mcm/trapp/jobs/pocket_505edb66-961a-471b-9951-1c9dc164f951/RIPLIG-OUT/RIPLIG3_LEU3/min/min.vel
Info: CENTER OF MASS MOVING INITIALLY? NO
Info: DIELECTRIC             1
Info: EXCLUDE                SCALED ONE-FOUR
Info: 1-4 ELECTROSTATICS SCALED BY 1
Info: MODIFIED 1-4 VDW PARAMETERS WILL BE USED
Info: DCD FILENAME           heating.dcd
Info: DCD FREQUENCY          50
Info: DCD FIRST STEP         50
Info: NO EXTENDED SYSTEM TRAJECTORY OUTPUT
Info: VELOCITY DCD FILENAME    heating.vel.dcd
Info: VELOCITY DCD FREQUENCY   50
Info: VELOCITY DCD FIRST STEP  50
Info: NO FORCE DCD OUTPUT
Info: OUTPUT FILENAME        heating
Info: NO RESTART FILE
Info: SWITCHING ACTIVE
Info: SWITCHING ON           15
Info: SWITCHING OFF          17
Info: PAIRLIST DISTANCE      18
Info: PAIRLIST SHRINK RATE   0.01
Info: PAIRLIST GROW RATE     0.01
Info: PAIRLIST TRIGGER       0.3
Info: PAIRLISTS PER CYCLE    2
Info: PAIRLISTS ENABLED
Info: MARGIN                 0
Info: HYDROGEN GROUP CUTOFF  2.5
Info: PATCH DIMENSION        20.5
Info: CROSSTERM ENERGY INCLUDED IN DIHEDRAL
Info: TIMING OUTPUT STEPS    50
Info: GBIS GENERALIZED BORN IMPLICIT SOLVENT ACTIVE
Info: GBIS SOLVENT DIELECTRIC: 78.5
Info: GBIS PROTEIN DIELECTRIC: 1
Info: GBIS COULOMB RADIUS OFFSET: 0.09 Ang
Info: GBIS ION CONCENTRATION: 0.3 M
Info: GBIS DEBYE SCREENING LENGTH: 5.57102 Ang
Info: GBIS DELTA: 1
Info: GBIS BETA: 0.8
Info: GBIS GAMMA: 4.85
Info: GBIS BORN RADIUS CUTOFF: 15 Ang
Info: GBIS MAX BORN RADIUS: 30 Ang
Info: SASA SURFACE TENSION: 0.005 kcal/mol/Ang^2
Info: LANGEVIN DYNAMICS ACTIVE
Info: LANGEVIN TEMPERATURE   10
Info: LANGEVIN DAMPING COEFFICIENT IS 5 INVERSE PS
Info: LANGEVIN DYNAMICS APPLIED TO HYDROGENS
Info: FULL ELECTROSTATIC EVALUATION FREQUENCY      2
Info: USING VERLET I (r-RESPA) MTS SCHEME.
Info: C1 SPLITTING OF LONG RANGE ELECTROSTATICS
Info: PLACING ATOMS IN PATCHES BY HYDROGEN GROUPS
Info: RIGID BONDS TO HYDROGEN : ALL
Info:         ERROR TOLERANCE : 1e-08
Info:          MAX ITERATIONS : 100
Info: RIGID WATER USING SETTLE ALGORITHM
Info: NONBONDED FORCES EVALUATED EVERY 2 STEPS
Info: RANDOM NUMBER SEED     1716537423
Info: USE HYDROGEN BONDS?    NO
Info: COORDINATE PDB         /scratch/mcm/trapp/jobs/pocket_505edb66-961a-471b-9951-1c9dc164f951/RIPLIG-OUT/RIPLIG3_LEU3/min/min.coor
Info: STRUCTURE FILE         /scratch/mcm/trapp/jobs/pocket_505edb66-961a-471b-9951-1c9dc164f951/RIPLIG-OUT/RIPLIG3_LEU3/min/min.psf
Info: PARAMETER file: CHARMM format!
Info: PARAMETERS             /share/apps/mcm/trapp4/trapptool/auxi/rip-script-NAMD/pdbtool/parms/charmm27.parameter
Info: USING ARITHMETIC MEAN TO COMBINE L-J SIGMA PARAMETERS
Info: SUMMARY OF PARAMETERS:
Info: 257 BONDS
Info: 656 ANGLES
Info: 1127 DIHEDRAL
Info: 70 IMPROPER
Info: 6 CROSSTERM
Info: 163 VDW
Info: 0 VDW_PAIRS
Info: 0 NBTHOLE_PAIRS
Info: STRUCTURE SUMMARY:
Info: 3298 ATOMS
Info: 3324 BONDS
Info: 6014 ANGLES
Info: 8769 DIHEDRALS
Info: 546 IMPROPERS
Info: 206 CROSSTERMS
Info: 0 EXCLUSIONS
Info: 1651 RIGID BONDS
Info: 8243 DEGREES OF FREEDOM
Info: 1647 HYDROGEN GROUPS
Info: 4 ATOMS IN LARGEST HYDROGEN GROUP
Info: 1647 MIGRATION GROUPS
Info: 4 ATOMS IN LARGEST MIGRATION GROUP
Info: TOTAL MASS = 23401.6 amu
Info: TOTAL CHARGE = -7 e
Info: REMOVING COM VELOCITY 0 0 0
Info: NONBONDED TABLE R-SQUARED SPACING: 0.0625
Info: NONBONDED TABLE SIZE: 833 POINTS
TCL: Original numsteps 1000 will be ignored.
TCL: Running for 100 steps
ETITLE: TS BOND ANGLE DIHED IMPRP ELECT VDW BOUNDARY MISC KINETIC TOTAL TEMP POTENTIAL TOTAL3 TEMPAVG
ENERGY: 0 159.8561 570.3734 638.4761 33.8606 -7163.6551 -830.8499 0.0000 0.0000 79.5985 -6512.3404 9.7187 -6591.9390 -6511.6194 9.7187
ENERGY: 20 176.7238 573.3885 627.7224 25.7418 -7116.2179 -889.5287 0.0000 0.0000 91.2963 -6510.8738 11.1470 -6602.1701 -6510.3855 11.1470
ENERGY: 40 182.5827 574.8254 615.3727 27.6254 -7082.9003 -951.1522 0.0000 0.0000 115.9985 -6517.6477 14.1631 -6633.6462 -6516.9468 14.1631
ENERGY: 60 187.1122 574.0325 613.4894 25.4276 -7055.8569 -995.3246 0.0000 0.0000 124.6065 -6526.5134 15.2141 -6651.1199 -6525.5721 15.2141
ENERGY: 80 186.2861 568.5660 603.8818 25.8043 -7037.6898 -1014.5887 0.0000 0.0000 129.8288 -6537.9116 15.8517 -6667.7404 -6537.0741 15.8517
ENERGY: 100 189.2241 563.4059 600.1841 25.5998 -7030.1581 -1022.4935 0.0000 0.0000 126.3243 -6547.9135 15.4238 -6674.2378 -6547.1464 15.4238
TCL: Setting parameter langevinTemp to 35
TCL: Running for 100 steps
ETITLE: TS BOND ANGLE DIHED IMPRP ELECT VDW BOUNDARY MISC KINETIC TOTAL TEMP POTENTIAL TOTAL3 TEMPAVG
ENERGY: 100 189.2241 563.4059 600.1841 25.5998 -7030.1581 -1022.4935 0.0000 0.0000 281.8086 -6392.4292 34.4080 -6674.2378 -6391.4737 34.4080
ENERGY: 120 212.2326 631.0081 606.9781 28.5528 -7037.4395 -1016.4875 0.0000 0.0000 203.6870 -6371.4683 24.8696 -6575.1553 -6370.9696 24.8696
ENERGY: 140 206.5504 640.1595 609.9053 29.5222 -7042.5370 -1005.1614 0.0000 0.0000 205.4588 -6356.1022 25.0859 -6561.5609 -6355.9152 25.0859
ENERGY: 160 207.5195 611.8969 604.6144 28.8212 -7033.0181 -994.0765 0.0000 0.0000 231.1974 -6343.0452 28.2285 -6574.2425 -6342.1455 28.2285
ENERGY: 180 208.6784 608.5701 607.5406 30.0455 -7045.6751 -984.4910 0.0000 0.0000 239.6597 -6335.6717 29.2617 -6575.3314 -6334.6332 29.2617
ENERGY: 200 198.8935 628.8116 603.4355 28.8703 -7042.5771 -978.7738 0.0000 0.0000 234.7938 -6326.5463 28.6676 -6561.3401 -6325.2379 28.6676
TCL: Setting parameter langevinTemp to 60
TCL: Running for 100 steps
ETITLE: TS BOND ANGLE DIHED IMPRP ELECT VDW BOUNDARY MISC KINETIC TOTAL TEMP POTENTIAL TOTAL3 TEMPAVG
ENERGY: 200 198.8935 628.8116 603.4355 28.8703 -7042.5771 -978.7738 0.0000 0.0000 484.9572 -6076.3828 59.2118 -6561.3401 -6075.9778 59.2118
ENERGY: 220 237.7633 690.3458 619.3828 33.6662 -7045.7517 -966.9780 0.0000 0.0000 375.6020 -6055.9696 45.8599 -6431.5716 -6055.1543 45.8599
ENERGY: 240 242.0695 721.0074 620.0099 34.4606 -7043.4769 -983.7592 0.0000 0.0000 375.7768 -6033.9119 45.8812 -6409.6887 -6032.7150 45.8812
ENERGY: 260 240.5922 717.6052 624.2887 36.3233 -7030.3639 -1004.0778 0.0000 0.0000 399.6688 -6015.9634 48.7984 -6415.6322 -6015.8786 48.7984
ENERGY: 280 246.0893 737.6824 621.8920 35.1981 -7034.2725 -1013.2573 0.0000 0.0000 407.0291 -5999.6389 49.6970 -6406.6680 -5997.8741 49.6970
ENERGY: 300 254.2583 712.9164 612.3979 37.6602 -7026.6539 -992.4570 0.0000 0.0000 417.4232 -5984.4551 50.9661 -6401.8782 -5983.5952 50.9661
TCL: Setting parameter langevinTemp to 85
TCL: Running for 100 steps
ETITLE: TS BOND ANGLE DIHED IMPRP ELECT VDW BOUNDARY MISC KINETIC TOTAL TEMP POTENTIAL TOTAL3 TEMPAVG
ENERGY: 300 254.2583 712.9164 612.3979 37.6602 -7026.6539 -992.4570 0.0000 0.0000 694.0591 -5707.8192 84.7425 -6401.8782 -5707.2259 84.7425
ENERGY: 320 276.3387 824.2190 629.5544 41.4654 -7035.8719 -979.4387 0.0000 0.0000 573.6065 -5670.1267 70.0356 -6243.7332 -5669.6450 70.0356
ENERGY: 340 285.6933 833.4578 644.8499 42.3702 -7040.6835 -991.6342 0.0000 0.0000 585.3548 -5640.5915 71.4701 -6225.9463 -5639.5602 71.4701
ENERGY: 360 280.4708 819.7971 635.2845 41.9880 -7019.5363 -983.5836 0.0000 0.0000 603.9502 -5621.6293 73.7405 -6225.5795 -5620.4368 73.7405
ENERGY: 380 278.9862 827.7265 645.3114 46.1999 -7019.8035 -982.9608 0.0000 0.0000 596.4335 -5608.1068 72.8228 -6204.5403 -5605.7690 72.8228
ENERGY: 400 279.8270 831.4255 641.2594 44.6879 -7014.6600 -989.2216 0.0000 0.0000 612.0774 -5594.6044 74.7328 -6206.6818 -5593.3443 74.7328
TCL: Setting parameter langevinTemp to 110
TCL: Running for 100 steps
ETITLE: TS BOND ANGLE DIHED IMPRP ELECT VDW BOUNDARY MISC KINETIC TOTAL TEMP POTENTIAL TOTAL3 TEMPAVG
ENERGY: 400 279.8270 831.4255 641.2594 44.6879 -7014.6600 -989.2216 0.0000 0.0000 908.4137 -5298.2681 110.9146 -6206.6818 -5296.9048 110.9146
ENERGY: 420 299.3438 917.0717 663.1691 46.4207 -7006.4817 -984.2277 0.0000 0.0000 778.7565 -5285.9476 95.0839 -6064.7041 -5284.0425 95.0839
ENERGY: 440 338.9673 927.9223 655.4541 49.0886 -7011.3188 -1001.2341 0.0000 0.0000 787.0926 -5254.0278 96.1017 -6041.1205 -5250.6297 96.1017
ENERGY: 460 336.9554 935.5515 658.9658 42.0576 -7009.5911 -1003.5976 0.0000 0.0000 803.7204 -5235.9380 98.1319 -6039.6584 -5233.2981 98.1319
ENERGY: 480 327.6120 933.6956 660.4028 47.4168 -7013.2705 -990.3918 0.0000 0.0000 825.0291 -5209.5059 100.7336 -6034.5350 -5205.2792 100.7336
ENERGY: 500 336.9778 927.0050 657.8770 44.6127 -7005.9593 -989.0609 0.0000 0.0000 829.4279 -5199.1198 101.2707 -6028.5478 -5197.8187 101.2707
TCL: Setting parameter langevinTemp to 135
TCL: Running for 100 steps
ETITLE: TS BOND ANGLE DIHED IMPRP ELECT VDW BOUNDARY MISC KINETIC TOTAL TEMP POTENTIAL TOTAL3 TEMPAVG
ENERGY: 500 336.9778 927.0050 657.8770 44.6127 -7005.9593 -989.0609 0.0000 0.0000 1114.8371 -4913.7107 136.1183 -6028.5478 -4912.1962 136.1183
ENERGY: 520 374.2645 1034.4984 678.9525 51.8333 -7035.8380 -982.9422 0.0000 0.0000 1003.3586 -4875.8728 122.5071 -5879.2314 -4871.4378 122.5071
ENERGY: 540 371.1496 1036.5393 677.3817 55.8566 -7015.9500 -970.9484 0.0000 0.0000 973.7581 -4872.2132 118.8930 -5845.9713 -4869.1541 118.8930
ENERGY: 560 372.1804 1020.0295 685.5277 56.0527 -7011.6033 -989.0485 0.0000 0.0000 1022.2608 -4844.6009 124.8150 -5866.8616 -4843.3930 124.8150
ENERGY: 580 361.4247 1033.2192 689.0440 58.0839 -7008.8882 -970.4493 0.0000 0.0000 1018.5210 -4819.0447 124.3584 -5837.5657 -4816.5960 124.3584
ENERGY: 600 353.7707 1039.2063 676.8638 45.5677 -6984.7584 -971.8006 0.0000 0.0000 1045.9817 -4795.1687 127.7113 -5841.1504 -4790.4111 127.7113
TCL: Setting parameter langevinTemp to 160
TCL: Running for 100 steps
ETITLE: TS BOND ANGLE DIHED IMPRP ELECT VDW BOUNDARY MISC KINETIC TOTAL TEMP POTENTIAL TOTAL3 TEMPAVG
ENERGY: 600 353.7707 1039.2063 676.8638 45.5677 -6984.7584 -971.8006 0.0000 0.0000 1311.1958 -4529.9546 160.0931 -5841.1504 -4528.2738 160.0931
ENERGY: 620 391.3462 1121.2276 708.2885 62.7021 -7018.1376 -955.9835 0.0000 0.0000 1178.3207 -4512.2360 143.8694 -5690.5567 -4511.3888 143.8694
ENERGY: 640 410.6048 1129.7426 706.0419 58.1161 -7000.6534 -957.2160 0.0000 0.0000 1169.3254 -4484.0388 142.7711 -5653.3641 -4481.5552 142.7711
ENERGY: 660 429.4722 1106.9272 701.9779 63.2613 -7006.6173 -968.2360 0.0000 0.0000 1217.1299 -4456.0848 148.6079 -5673.2147 -4450.3160 148.6079
ENERGY: 680 413.9322 1148.9894 705.3979 57.5675 -7001.1247 -971.0238 0.0000 0.0000 1208.7538 -4437.5076 147.5852 -5646.2614 -4434.6611 147.5852
ENERGY: 700 397.0150 1138.2470 688.2257 63.5967 -6978.9174 -961.9819 0.0000 0.0000 1241.2090 -4412.6059 151.5479 -5653.8149 -4406.8821 151.5479
TCL: Setting parameter langevinTemp to 185
TCL: Running for 100 steps
ETITLE: TS BOND ANGLE DIHED IMPRP ELECT VDW BOUNDARY MISC KINETIC TOTAL TEMP POTENTIAL TOTAL3 TEMPAVG
ENERGY: 700 397.0150 1138.2470 688.2257 63.5967 -6978.9174 -961.9819 0.0000 0.0000 1501.7254 -4152.0896 183.3562 -5653.8149 -4149.6259 183.3562
ENERGY: 720 444.0875 1264.3546 707.0008 69.5895 -7007.8426 -941.4091 0.0000 0.0000 1349.1357 -4115.0836 164.7255 -5464.2192 -4109.9873 164.7255
ENERGY: 740 463.0355 1213.2952 713.4461 66.4177 -6984.1080 -937.9561 0.0000 0.0000 1375.1491 -4090.7205 167.9016 -5465.8696 -4087.2184 167.9016
ENERGY: 760 438.4020 1219.6631 722.4375 73.0400 -6977.6671 -965.1185 0.0000 0.0000 1440.9682 -4048.2748 175.9379 -5489.2431 -4043.6702 175.9379
ENERGY: 780 442.9036 1245.1766 718.2821 68.2437 -6936.1824 -963.0741 0.0000 0.0000 1376.8767 -4047.7738 168.1126 -5424.6505 -4044.3138 168.1126
ENERGY: 800 421.8972 1237.2893 722.8575 68.8949 -6936.9108 -975.3633 0.0000 0.0000 1395.7118 -4065.6235 170.4123 -5461.3353 -4061.8813 170.4123
TCL: Setting parameter langevinTemp to 210
TCL: Running for 100 steps
ETITLE: TS BOND ANGLE DIHED IMPRP ELECT VDW BOUNDARY MISC KINETIC TOTAL TEMP POTENTIAL TOTAL3 TEMPAVG
ENERGY: 800 421.8972 1237.2893 722.8575 68.8949 -6936.9108 -975.3633 0.0000 0.0000 1742.8521 -3718.4831 212.7971 -5461.3353 -3714.8830 212.7971
ENERGY: 820 460.2570 1341.9436 734.7126 76.6407 -6956.5296 -943.9066 0.0000 0.0000 1578.8479 -3708.0343 192.7726 -5286.8822 -3702.6061 192.7726
ENERGY: 840 473.3156 1362.1453 735.0809 80.0400 -6973.9713 -944.9400 0.0000 0.0000 1584.8708 -3683.4587 193.5080 -5268.3295 -3676.2716 193.5080
ENERGY: 860 462.4481 1366.3181 741.4731 84.9738 -6978.9733 -932.2690 0.0000 0.0000 1608.1724 -3647.8568 196.3531 -5256.0293 -3644.4046 196.3531
ENERGY: 880 493.4001 1376.6481 733.5050 79.2558 -6980.1621 -945.5799 0.0000 0.0000 1619.7024 -3623.2306 197.7608 -5242.9330 -3618.3894 197.7608
ENERGY: 900 493.3201 1319.7714 737.2393 81.3014 -6964.1633 -925.4801 0.0000 0.0000 1620.9673 -3637.0438 197.9153 -5258.0111 -3631.6278 197.9153
TCL: Setting parameter langevinTemp to 235
TCL: Running for 100 steps
ETITLE: TS BOND ANGLE DIHED IMPRP ELECT VDW BOUNDARY MISC KINETIC TOTAL TEMP POTENTIAL TOTAL3 TEMPAVG
ENERGY: 900 493.3201 1319.7714 737.2393 81.3014 -6964.1633 -925.4801 0.0000 0.0000 1896.1097 -3361.9015 231.5094 -5258.0111 -3358.1354 231.5094
ENERGY: 920 516.2823 1463.0678 750.3977 72.8533 -6975.3240 -932.7138 0.0000 0.0000 1790.5767 -3314.8600 218.6241 -5105.4367 -3305.5490 218.6241
ENERGY: 940 518.9874 1499.7064 763.5300 90.6989 -6991.3359 -943.4413 0.0000 0.0000 1780.2965 -3281.5580 217.3689 -5061.8545 -3274.4788 217.3689
ENERGY: 960 527.5814 1449.2374 771.9746 89.0038 -6961.7263 -926.0393 0.0000 0.0000 1792.0523 -3257.9160 218.8043 -5049.9683 -3254.4367 218.8043
ENERGY: 980 507.4375 1494.7032 758.7121 89.4232 -6971.4981 -904.4598 0.0000 0.0000 1817.7982 -3207.8837 221.9478 -5025.6819 -3198.8744 221.9478
ENERGY: 1000 506.5197 1460.2713 771.3679 83.4168 -6936.4924 -897.6987 0.0000 0.0000 1840.6189 -3171.9964 224.7341 -5012.6153 -3167.3849 224.7341
TCL: Setting parameter langevinTemp to 260
TCL: Running for 100 steps
ETITLE: TS BOND ANGLE DIHED IMPRP ELECT VDW BOUNDARY MISC KINETIC TOTAL TEMP POTENTIAL TOTAL3 TEMPAVG
ENERGY: 1000 506.5197 1460.2713 771.3679 83.4168 -6936.4924 -897.6987 0.0000 0.0000 2100.1002 -2912.5151 256.4160 -5012.6153 -2909.7365 256.4160
ENERGY: 1020 547.9588 1622.5489 769.0756 90.4540 -6949.6878 -933.0809 0.0000 0.0000 1972.8894 -2879.8420 240.8839 -4852.7313 -2873.5179 240.8839
ENERGY: 1040 567.5491 1552.0948 779.1062 94.5380 -6916.6683 -950.7513 0.0000 0.0000 2061.7463 -2812.3851 251.7331 -4874.1314 -2805.4972 251.7331
ENERGY: 1060 566.9397 1610.0535 798.4055 100.6975 -6958.4741 -933.6879 0.0000 0.0000 2034.2110 -2781.8547 248.3711 -4816.0658 -2776.9100 248.3711
ENERGY: 1080 566.6925 1585.9854 796.5391 98.4169 -6953.6466 -902.7172 0.0000 0.0000 2060.9903 -2747.7396 251.6408 -4808.7299 -2741.7557 251.6408
ENERGY: 1100 536.8768 1536.1590 801.2365 105.5204 -6923.7196 -868.7804 0.0000 0.0000 2082.3407 -2730.3665 254.2476 -4812.7072 -2724.9849 254.2476
TCL: Setting parameter langevinTemp to 285
TCL: Running for 100 steps
ETITLE: TS BOND ANGLE DIHED IMPRP ELECT VDW BOUNDARY MISC KINETIC TOTAL TEMP POTENTIAL TOTAL3 TEMPAVG
ENERGY: 1100 536.8768 1536.1590 801.2365 105.5204 -6923.7196 -868.7804 0.0000 0.0000 2313.8434 -2498.8638 282.5134 -4812.7072 -2493.5755 282.5134
ENERGY: 1120 618.8118 1653.9019 802.8722 106.7290 -6947.8153 -884.4600 0.0000 0.0000 2142.6657 -2507.2947 261.6131 -4649.9604 -2502.4813 261.6131
ENERGY: 1140 593.2238 1705.5301 804.5683 110.3725 -6969.2432 -914.7485 0.0000 0.0000 2229.3266 -2440.9706 272.1941 -4670.2971 -2433.1260 272.1941
ENERGY: 1160 642.6470 1724.2721 805.6731 100.1016 -6923.6919 -940.9511 0.0000 0.0000 2214.0945 -2377.8547 270.3344 -4591.9492 -2365.9299 270.3344
ENERGY: 1180 612.5551 1731.1338 819.0867 109.4688 -6915.4080 -961.5279 0.0000 0.0000 2248.2175 -2356.4739 274.5007 -4604.6915 -2347.9829 274.5007
ENERGY: 1200 577.9104 1684.5006 829.7872 103.5091 -6882.7313 -924.8123 0.0000 0.0000 2255.7794 -2356.0569 275.4240 -4611.8363 -2350.8648 275.4240
TCL: Setting parameter firsttimestep to 0
