Info: SIMULATION PARAMETERS:
Info: TIMESTEP               1
Info: NUMBER OF STEPS        1000
Info: STEPS PER CYCLE        10
Info: FIRST LDB TIMESTEP     50
Info: LAST LDB TIMESTEP     -1
Info: HOM BACKGROUND SCALING 1
Info: MIN ATOMS PER PATCH    40
Info: VELOCITY FILE          /scratch/mcm/trapp/jobs/pocket_505edb66-961a-471b-9951-1c9dc164f951/RIPLIG-OUT/RIPLIG1_LEU1/min/min.vel
Info: CENTER OF MASS MOVING INITIALLY? NO
Info: DIELECTRIC             1
Info: EXCLUDE                SCALED ONE-FOUR
Info: 1-4 ELECTROSTATICS SCALED BY 1
Info: MODIFIED 1-4 VDW PARAMETERS WILL BE USED
Info: DCD FILENAME           heating.dcd
Info: DCD FREQUENCY          50
Info: DCD FIRST STEP         50
Info: NO EXTENDED SYSTEM TRAJECTORY OUTPUT
Info: VELOCITY DCD FILENAME    heating.vel.dcd
Info: VELOCITY DCD FREQUENCY   50
Info: VELOCITY DCD FIRST STEP  50
Info: NO FORCE DCD OUTPUT
Info: OUTPUT FILENAME        heating
Info: NO RESTART FILE
Info: SWITCHING ACTIVE
Info: SWITCHING ON           15
Info: SWITCHING OFF          17
Info: PAIRLIST DISTANCE      18
Info: PAIRLIST SHRINK RATE   0.01
Info: PAIRLIST GROW RATE     0.01
Info: PAIRLIST TRIGGER       0.3
Info: PAIRLISTS PER CYCLE    2
Info: PAIRLISTS ENABLED
Info: MARGIN                 0
Info: HYDROGEN GROUP CUTOFF  2.5
Info: PATCH DIMENSION        20.5
Info: CROSSTERM ENERGY INCLUDED IN DIHEDRAL
Info: TIMING OUTPUT STEPS    50
Info: GBIS GENERALIZED BORN IMPLICIT SOLVENT ACTIVE
Info: GBIS SOLVENT DIELECTRIC: 78.5
Info: GBIS PROTEIN DIELECTRIC: 1
Info: GBIS COULOMB RADIUS OFFSET: 0.09 Ang
Info: GBIS ION CONCENTRATION: 0.3 M
Info: GBIS DEBYE SCREENING LENGTH: 5.57102 Ang
Info: GBIS DELTA: 1
Info: GBIS BETA: 0.8
Info: GBIS GAMMA: 4.85
Info: GBIS BORN RADIUS CUTOFF: 15 Ang
Info: GBIS MAX BORN RADIUS: 30 Ang
Info: SASA SURFACE TENSION: 0.005 kcal/mol/Ang^2
Info: LANGEVIN DYNAMICS ACTIVE
Info: LANGEVIN TEMPERATURE   10
Info: LANGEVIN DAMPING COEFFICIENT IS 5 INVERSE PS
Info: LANGEVIN DYNAMICS APPLIED TO HYDROGENS
Info: FULL ELECTROSTATIC EVALUATION FREQUENCY      2
Info: USING VERLET I (r-RESPA) MTS SCHEME.
Info: C1 SPLITTING OF LONG RANGE ELECTROSTATICS
Info: PLACING ATOMS IN PATCHES BY HYDROGEN GROUPS
Info: RIGID BONDS TO HYDROGEN : ALL
Info:         ERROR TOLERANCE : 1e-08
Info:          MAX ITERATIONS : 100
Info: RIGID WATER USING SETTLE ALGORITHM
Info: NONBONDED FORCES EVALUATED EVERY 2 STEPS
Info: RANDOM NUMBER SEED     1716533818
Info: USE HYDROGEN BONDS?    NO
Info: COORDINATE PDB         /scratch/mcm/trapp/jobs/pocket_505edb66-961a-471b-9951-1c9dc164f951/RIPLIG-OUT/RIPLIG1_LEU1/min/min.coor
Info: STRUCTURE FILE         /scratch/mcm/trapp/jobs/pocket_505edb66-961a-471b-9951-1c9dc164f951/RIPLIG-OUT/RIPLIG1_LEU1/min/min.psf
Info: PARAMETER file: CHARMM format!
Info: PARAMETERS             /share/apps/mcm/trapp4/trapptool/auxi/rip-script-NAMD/pdbtool/parms/charmm27.parameter
Info: USING ARITHMETIC MEAN TO COMBINE L-J SIGMA PARAMETERS
Info: SUMMARY OF PARAMETERS:
Info: 257 BONDS
Info: 656 ANGLES
Info: 1127 DIHEDRAL
Info: 70 IMPROPER
Info: 6 CROSSTERM
Info: 163 VDW
Info: 0 VDW_PAIRS
Info: 0 NBTHOLE_PAIRS
Info: STRUCTURE SUMMARY:
Info: 3298 ATOMS
Info: 3324 BONDS
Info: 6014 ANGLES
Info: 8769 DIHEDRALS
Info: 546 IMPROPERS
Info: 206 CROSSTERMS
Info: 0 EXCLUSIONS
Info: 1651 RIGID BONDS
Info: 8243 DEGREES OF FREEDOM
Info: 1647 HYDROGEN GROUPS
Info: 4 ATOMS IN LARGEST HYDROGEN GROUP
Info: 1647 MIGRATION GROUPS
Info: 4 ATOMS IN LARGEST MIGRATION GROUP
Info: TOTAL MASS = 23401.6 amu
Info: TOTAL CHARGE = -7 e
Info: REMOVING COM VELOCITY 0 0 0
Info: NONBONDED TABLE R-SQUARED SPACING: 0.0625
Info: NONBONDED TABLE SIZE: 833 POINTS
TCL: Original numsteps 1000 will be ignored.
TCL: Running for 100 steps
ETITLE: TS BOND ANGLE DIHED IMPRP ELECT VDW BOUNDARY MISC KINETIC TOTAL TEMP POTENTIAL TOTAL3 TEMPAVG
ENERGY: 0 158.3251 563.4377 629.9032 33.4913 -7170.5290 -825.7657 0.0000 0.0000 81.0114 -6530.1260 9.8913 -6611.1374 -6529.4227 9.8913
ENERGY: 20 173.0768 565.9275 619.5102 25.1929 -7118.9017 -881.5803 0.0000 0.0000 88.8747 -6527.8999 10.8513 -6616.7747 -6527.3616 10.8513
ENERGY: 40 181.9632 566.4669 607.9220 27.6939 -7084.2653 -951.2954 0.0000 0.0000 118.3258 -6533.1889 14.4472 -6651.5147 -6532.3961 14.4472
ENERGY: 60 184.8641 572.9718 602.3379 25.8592 -7052.9219 -1001.5610 0.0000 0.0000 127.8517 -6540.5983 15.6103 -6668.4499 -6539.8615 15.6103
ENERGY: 80 187.9912 565.7448 592.1322 24.9156 -7036.7869 -1019.8367 0.0000 0.0000 136.6610 -6549.1790 16.6859 -6685.8399 -6548.3807 16.6859
ENERGY: 100 187.3733 556.9157 590.6057 26.0064 -7024.0130 -1027.0123 0.0000 0.0000 129.9562 -6560.1680 15.8673 -6690.1242 -6559.6064 15.8673
TCL: Setting parameter langevinTemp to 35
TCL: Running for 100 steps
ETITLE: TS BOND ANGLE DIHED IMPRP ELECT VDW BOUNDARY MISC KINETIC TOTAL TEMP POTENTIAL TOTAL3 TEMPAVG
ENERGY: 100 187.3733 556.9157 590.6057 26.0064 -7024.0130 -1027.0123 0.0000 0.0000 278.4476 -6411.6765 33.9976 -6690.1242 -6410.7183 33.9976
ENERGY: 120 203.2514 623.1717 595.1186 26.8721 -7023.5836 -1016.3582 0.0000 0.0000 199.4024 -6392.1255 24.3464 -6591.5280 -6391.7068 24.3464
ENERGY: 140 211.9959 625.3753 599.1216 28.9741 -7033.7604 -1009.2448 0.0000 0.0000 204.4621 -6373.0762 24.9642 -6577.5383 -6372.3611 24.9642
ENERGY: 160 205.0481 614.8819 604.5806 28.9632 -7042.2503 -997.8408 0.0000 0.0000 226.6978 -6359.9195 27.6791 -6586.6173 -6359.4168 27.6791
ENERGY: 180 213.2583 627.5011 603.9874 28.4074 -7066.9687 -985.2128 0.0000 0.0000 227.7362 -6351.2911 27.8059 -6579.0273 -6350.3278 27.8059
ENERGY: 200 211.2280 637.5262 600.0425 30.8363 -7076.0584 -974.9789 0.0000 0.0000 232.9996 -6338.4047 28.4486 -6571.4043 -6337.2851 28.4486
TCL: Setting parameter langevinTemp to 60
TCL: Running for 100 steps
ETITLE: TS BOND ANGLE DIHED IMPRP ELECT VDW BOUNDARY MISC KINETIC TOTAL TEMP POTENTIAL TOTAL3 TEMPAVG
ENERGY: 200 211.2280 637.5262 600.0425 30.8363 -7076.0584 -974.9789 0.0000 0.0000 499.8310 -6071.5733 61.0279 -6571.4043 -6071.2086 61.0279
ENERGY: 220 238.7177 726.7524 617.8240 35.8738 -7070.2333 -975.6596 0.0000 0.0000 370.5980 -6056.1272 45.2489 -6426.7252 -6055.6465 45.2489
ENERGY: 240 250.8857 731.9960 620.8454 32.8885 -7068.9759 -981.1070 0.0000 0.0000 385.2452 -6028.2221 47.0373 -6413.4674 -6027.0136 47.0373
ENERGY: 260 242.8995 723.2012 608.9715 37.3483 -7041.7842 -986.3095 0.0000 0.0000 404.1256 -6011.5475 49.3425 -6415.6731 -6011.1098 49.3425
ENERGY: 280 245.2811 719.4607 610.9008 36.0642 -7035.9517 -991.8526 0.0000 0.0000 420.0828 -5996.0146 51.2909 -6416.0974 -5993.5973 51.2909
ENERGY: 300 250.8619 717.9869 613.3117 36.9428 -7031.0605 -996.6217 0.0000 0.0000 429.6850 -5978.8941 52.4633 -6408.5790 -5977.6983 52.4633
TCL: Setting parameter langevinTemp to 85
TCL: Running for 100 steps
ETITLE: TS BOND ANGLE DIHED IMPRP ELECT VDW BOUNDARY MISC KINETIC TOTAL TEMP POTENTIAL TOTAL3 TEMPAVG
ENERGY: 300 250.8619 717.9869 613.3117 36.9428 -7031.0605 -996.6217 0.0000 0.0000 686.8723 -5721.7068 83.8651 -6408.5790 -5721.0545 83.8651
ENERGY: 320 261.0312 816.1753 631.8646 40.6036 -7035.5296 -976.4166 0.0000 0.0000 564.4026 -5697.8690 68.9119 -6262.2715 -5697.3376 68.9119
ENERGY: 340 280.6342 806.0512 630.4136 42.4438 -7040.6700 -970.9068 0.0000 0.0000 577.1353 -5674.8988 70.4665 -6252.0341 -5672.4972 70.4665
ENERGY: 360 290.5672 818.3297 629.0838 41.6634 -7039.2349 -980.2755 0.0000 0.0000 590.5345 -5649.3318 72.1025 -6239.8664 -5647.1956 72.1025
ENERGY: 380 289.5476 824.7672 625.5039 45.7421 -7030.7976 -982.3765 0.0000 0.0000 601.7697 -5625.8437 73.4743 -6227.6134 -5624.1827 73.4743
ENERGY: 400 296.1078 831.4967 618.6828 38.0502 -7034.8784 -982.6647 0.0000 0.0000 620.6272 -5612.5784 75.7767 -6233.2056 -5611.1301 75.7767
TCL: Setting parameter langevinTemp to 110
TCL: Running for 100 steps
ETITLE: TS BOND ANGLE DIHED IMPRP ELECT VDW BOUNDARY MISC KINETIC TOTAL TEMP POTENTIAL TOTAL3 TEMPAVG
ENERGY: 400 296.1078 831.4967 618.6828 38.0502 -7034.8784 -982.6647 0.0000 0.0000 886.2607 -5346.9450 108.2098 -6233.2056 -5345.7097 108.2098
ENERGY: 420 306.4093 909.5603 629.3706 47.6351 -7025.4150 -967.1317 0.0000 0.0000 773.0978 -5326.4735 94.3929 -6099.5713 -5324.0834 94.3929
ENERGY: 440 314.5558 894.5903 629.3474 45.0328 -7000.6644 -957.5976 0.0000 0.0000 777.9963 -5296.7393 94.9910 -6074.7357 -5293.9678 94.9910
ENERGY: 460 309.3340 897.8284 639.2583 47.6395 -7013.9574 -953.2876 0.0000 0.0000 798.9354 -5274.2494 97.5476 -6073.1849 -5269.5169 97.5476
ENERGY: 480 303.6453 914.3318 651.6062 51.7604 -7019.8009 -945.6417 0.0000 0.0000 783.2139 -5260.8850 95.6281 -6044.0989 -5258.2096 95.6281
ENERGY: 500 324.3294 917.4455 646.0053 47.5706 -7026.6078 -968.3107 0.0000 0.0000 812.8746 -5246.6931 99.2496 -6059.5677 -5244.9362 99.2496
TCL: Setting parameter langevinTemp to 135
TCL: Running for 100 steps
ETITLE: TS BOND ANGLE DIHED IMPRP ELECT VDW BOUNDARY MISC KINETIC TOTAL TEMP POTENTIAL TOTAL3 TEMPAVG
ENERGY: 500 324.3294 917.4455 646.0053 47.5706 -7026.6078 -968.3107 0.0000 0.0000 1117.9656 -4941.6021 136.5003 -6059.5677 -4939.4790 136.5003
ENERGY: 520 351.6860 1020.5558 669.9315 55.1070 -7016.8027 -959.9459 0.0000 0.0000 973.0016 -4906.4665 118.8006 -5879.4681 -4903.7588 118.8006
ENERGY: 540 354.0379 1029.9123 674.1130 57.0504 -7012.1105 -963.4357 0.0000 0.0000 976.5510 -4883.8817 119.2340 -5860.4327 -4880.8367 119.2340
ENERGY: 560 377.3672 1011.8123 657.3383 54.0074 -6986.3798 -959.8499 0.0000 0.0000 985.4502 -4860.2543 120.3205 -5845.7046 -4857.3960 120.3205
ENERGY: 580 364.7861 1024.6153 672.6773 58.1144 -7022.2800 -945.3124 0.0000 0.0000 990.6989 -4856.7004 120.9614 -5847.3993 -4851.5205 120.9614
ENERGY: 600 376.7821 1029.5201 661.5336 52.8844 -7007.0479 -950.7298 0.0000 0.0000 1005.0689 -4831.9887 122.7159 -5837.0576 -4827.2724 122.7159
TCL: Setting parameter langevinTemp to 160
TCL: Running for 100 steps
ETITLE: TS BOND ANGLE DIHED IMPRP ELECT VDW BOUNDARY MISC KINETIC TOTAL TEMP POTENTIAL TOTAL3 TEMPAVG
ENERGY: 600 376.7821 1029.5201 661.5336 52.8844 -7007.0479 -950.7298 0.0000 0.0000 1328.9270 -4508.1305 162.2580 -5837.0576 -4506.4197 162.2580
ENERGY: 620 408.4895 1118.4735 677.2301 62.7073 -7010.7994 -949.5941 0.0000 0.0000 1214.2137 -4479.2794 148.2519 -5693.4931 -4476.5952 148.2519
ENERGY: 640 398.6573 1132.7151 681.8367 61.3621 -6978.7061 -951.5161 0.0000 0.0000 1202.1799 -4453.4710 146.7826 -5655.6510 -4451.7250 146.7826
ENERGY: 660 397.7257 1120.2465 697.2928 61.2012 -7001.4559 -940.1527 0.0000 0.0000 1217.4251 -4447.7173 148.6440 -5665.1424 -4443.3562 148.6440
ENERGY: 680 406.5349 1134.0565 687.7989 66.8607 -7005.9163 -933.7948 0.0000 0.0000 1227.5962 -4416.8639 149.8858 -5644.4601 -4411.7953 149.8858
ENERGY: 700 419.4567 1124.1532 700.5787 62.7226 -7010.4380 -936.8064 0.0000 0.0000 1247.7818 -4392.5513 152.3505 -5640.3332 -4389.9452 152.3505
TCL: Setting parameter langevinTemp to 185
TCL: Running for 100 steps
ETITLE: TS BOND ANGLE DIHED IMPRP ELECT VDW BOUNDARY MISC KINETIC TOTAL TEMP POTENTIAL TOTAL3 TEMPAVG
ENERGY: 700 419.4567 1124.1532 700.5787 62.7226 -7010.4380 -936.8064 0.0000 0.0000 1539.8702 -4100.4630 188.0136 -5640.3332 -4098.5315 188.0136
ENERGY: 720 437.0469 1272.6802 715.3211 69.5721 -7014.7879 -928.4611 0.0000 0.0000 1383.8403 -4064.7886 168.9628 -5448.6289 -4060.3955 168.9628
ENERGY: 740 433.6788 1253.1318 717.0240 67.3647 -7002.7666 -928.3561 0.0000 0.0000 1410.3498 -4049.5736 172.1995 -5459.9233 -4047.1045 172.1995
ENERGY: 760 443.6518 1197.0428 723.7965 80.6396 -6987.9598 -941.7643 0.0000 0.0000 1460.5638 -4024.0294 178.3305 -5484.5932 -4018.5603 178.3305
ENERGY: 780 455.9736 1235.4766 739.2671 66.3971 -6988.1532 -933.0377 0.0000 0.0000 1406.6673 -4017.4093 171.7499 -5424.0766 -4013.0293 171.7499
ENERGY: 800 447.8145 1203.4918 732.2810 74.2453 -6979.4219 -915.3758 0.0000 0.0000 1439.9841 -3996.9809 175.8178 -5436.9650 -3992.1544 175.8178
TCL: Setting parameter langevinTemp to 210
TCL: Running for 100 steps
ETITLE: TS BOND ANGLE DIHED IMPRP ELECT VDW BOUNDARY MISC KINETIC TOTAL TEMP POTENTIAL TOTAL3 TEMPAVG
ENERGY: 800 447.8145 1203.4918 732.2810 74.2453 -6979.4219 -915.3758 0.0000 0.0000 1705.0866 -3731.8784 208.1860 -5436.9650 -3728.5998 208.1860
ENERGY: 820 479.5938 1314.9990 752.3145 77.6061 -6999.6210 -920.9384 0.0000 0.0000 1578.7017 -3717.3443 192.7548 -5296.0460 -3716.1271 192.7548
ENERGY: 840 517.1238 1346.5967 741.9440 71.4706 -6993.9309 -931.3973 0.0000 0.0000 1552.9350 -3695.2581 189.6087 -5248.1931 -3691.5869 189.6087
ENERGY: 860 459.8875 1344.1158 729.3914 73.6274 -6961.1942 -931.0352 0.0000 0.0000 1605.9730 -3679.2343 196.0845 -5285.2072 -3673.1965 196.0845
ENERGY: 880 485.1601 1306.3275 735.4321 79.6246 -6950.0843 -919.3777 0.0000 0.0000 1596.2630 -3666.6546 194.8990 -5262.9177 -3658.6386 194.8990
ENERGY: 900 492.6729 1298.9451 745.2416 75.2666 -6930.2907 -917.5982 0.0000 0.0000 1586.8397 -3648.9229 193.7484 -5235.7626 -3645.9819 193.7484
TCL: Setting parameter langevinTemp to 235
TCL: Running for 100 steps
ETITLE: TS BOND ANGLE DIHED IMPRP ELECT VDW BOUNDARY MISC KINETIC TOTAL TEMP POTENTIAL TOTAL3 TEMPAVG
ENERGY: 900 492.6729 1298.9451 745.2416 75.2666 -6930.2907 -917.5982 0.0000 0.0000 1942.7715 -3292.9911 237.2066 -5235.7626 -3289.7336 237.2066
ENERGY: 920 506.0380 1441.3464 772.7690 79.1416 -6981.2407 -891.7190 0.0000 0.0000 1812.7036 -3260.9612 221.3257 -5073.6648 -3257.9769 221.3257
ENERGY: 940 500.0231 1459.1178 771.4674 87.5403 -7000.7989 -891.5119 0.0000 0.0000 1825.9885 -3248.1736 222.9478 -5074.1621 -3245.3468 222.9478
ENERGY: 960 530.0216 1448.5618 768.1090 84.9979 -6980.0429 -905.0437 0.0000 0.0000 1813.7062 -3239.6901 221.4481 -5053.3963 -3231.9143 221.4481
ENERGY: 980 519.0749 1473.6284 760.6324 95.4077 -6984.6424 -935.6711 0.0000 0.0000 1834.1677 -3237.4024 223.9464 -5071.5701 -3229.8237 223.9464
ENERGY: 1000 544.2624 1474.1062 757.6346 80.2193 -6973.4894 -926.6019 0.0000 0.0000 1807.7946 -3236.0742 220.7263 -5043.8688 -3229.7398 220.7263
TCL: Setting parameter langevinTemp to 260
TCL: Running for 100 steps
ETITLE: TS BOND ANGLE DIHED IMPRP ELECT VDW BOUNDARY MISC KINETIC TOTAL TEMP POTENTIAL TOTAL3 TEMPAVG
ENERGY: 1000 544.2624 1474.1062 757.6346 80.2193 -6973.4894 -926.6019 0.0000 0.0000 2148.9774 -2894.8915 262.3837 -5043.8688 -2889.8334 262.3837
ENERGY: 1020 606.8866 1537.4875 784.4862 99.8614 -6979.5876 -915.6139 0.0000 0.0000 1984.0026 -2882.4772 242.2408 -4866.4798 -2876.6958 242.2408
ENERGY: 1040 563.2171 1577.1191 795.6152 94.6178 -6968.7358 -896.7848 0.0000 0.0000 1966.3285 -2868.6229 240.0829 -4834.9514 -2870.4473 240.0829
ENERGY: 1060 548.1759 1609.2599 806.3519 95.7526 -6969.8236 -899.3449 0.0000 0.0000 1970.7493 -2838.8789 240.6226 -4809.6282 -2832.5263 240.6226
ENERGY: 1080 593.6152 1552.5207 794.0438 96.1351 -6947.0928 -905.2795 0.0000 0.0000 2036.4354 -2779.6222 248.6427 -4816.0576 -2776.7596 248.6427
ENERGY: 1100 546.0956 1586.9001 794.5397 86.5825 -6928.8140 -898.2841 0.0000 0.0000 2053.9988 -2758.9814 250.7871 -4812.9802 -2748.5708 250.7871
TCL: Setting parameter langevinTemp to 285
TCL: Running for 100 steps
ETITLE: TS BOND ANGLE DIHED IMPRP ELECT VDW BOUNDARY MISC KINETIC TOTAL TEMP POTENTIAL TOTAL3 TEMPAVG
ENERGY: 1100 546.0956 1586.9001 794.5397 86.5825 -6928.8140 -898.2841 0.0000 0.0000 2358.5984 -2454.3818 287.9778 -4812.9802 -2450.1814 287.9778
ENERGY: 1120 588.1475 1614.5959 793.5703 101.0750 -6925.7297 -907.5928 0.0000 0.0000 2283.5099 -2452.4239 278.8098 -4735.9338 -2443.1069 278.8098
ENERGY: 1140 604.8571 1658.5394 800.6581 92.7815 -6947.5795 -855.6795 0.0000 0.0000 2230.0802 -2416.3426 272.2862 -4646.4229 -2412.0741 272.2862
ENERGY: 1160 598.3894 1662.6477 806.9871 116.9424 -6944.6732 -838.8310 0.0000 0.0000 2227.1415 -2371.3961 271.9274 -4598.5376 -2359.8361 271.9274
ENERGY: 1180 588.7718 1624.1449 825.7844 96.6758 -6911.5887 -822.5853 0.0000 0.0000 2259.2780 -2339.5190 275.8511 -4598.7970 -2332.8128 275.8511
ENERGY: 1200 577.7126 1629.3020 833.2772 114.1700 -6944.9992 -847.4722 0.0000 0.0000 2244.6699 -2393.3397 274.0675 -4638.0096 -2386.6403 274.0675
TCL: Setting parameter firsttimestep to 0
