Info: SIMULATION PARAMETERS:
Info: TIMESTEP               1
Info: NUMBER OF STEPS        2000
Info: STEPS PER CYCLE        20
Info: FIRST LDB TIMESTEP     100
Info: LAST LDB TIMESTEP     -1
Info: HOM BACKGROUND SCALING 1
Info: MIN ATOMS PER PATCH    40
Info: INITIAL TEMPERATURE    0
Info: CENTER OF MASS MOVING INITIALLY? NO
Info: DIELECTRIC             1
Info: EXCLUDE                SCALED ONE-FOUR
Info: 1-4 ELECTROSTATICS SCALED BY 1
Info: MODIFIED 1-4 VDW PARAMETERS WILL BE USED
Info: NO DCD TRAJECTORY OUTPUT
Info: NO EXTENDED SYSTEM TRAJECTORY OUTPUT
Info: NO VELOCITY DCD OUTPUT
Info: NO FORCE DCD OUTPUT
Info: OUTPUT FILENAME        min
Info: NO RESTART FILE
Info: SWITCHING ACTIVE
Info: SWITCHING ON           15
Info: SWITCHING OFF          17
Info: PAIRLIST DISTANCE      18
Info: PAIRLIST SHRINK RATE   0.01
Info: PAIRLIST GROW RATE     0.01
Info: PAIRLIST TRIGGER       0.3
Info: PAIRLISTS PER CYCLE    2
Info: PAIRLISTS ENABLED
Info: MARGIN                 0
Info: HYDROGEN GROUP CUTOFF  2.5
Info: PATCH DIMENSION        20.5
Info: ENERGY OUTPUT STEPS    100
Info: CROSSTERM ENERGY INCLUDED IN DIHEDRAL
Info: TIMING OUTPUT STEPS    1000
Info: CONJUGATE GRADIENT MINIMIZATION ACTIVE
Info: LINE MINIMIZATION GOAL = 0.001
Info: BABY STEP SIZE = 0.01
Info: TINY STEP SIZE = 1e-06
Info: USING VERLET I (r-RESPA) MTS SCHEME.
Info: C1 SPLITTING OF LONG RANGE ELECTROSTATICS
Info: PLACING ATOMS IN PATCHES BY HYDROGEN GROUPS
Info: RANDOM NUMBER SEED     1716533707
Info: USE HYDROGEN BONDS?    NO
Info: COORDINATE PDB         /scratch/mcm/trapp/jobs/pocket_1f2cd40d-8da8-4e03-b579-e495771b7375/RIPLIG-OUT/RIPLIG1_LEU1/sim.pdb
Info: STRUCTURE FILE         /scratch/mcm/trapp/jobs/pocket_1f2cd40d-8da8-4e03-b579-e495771b7375/RIPLIG-OUT/RIPLIG1_LEU1/sim.psf
Info: PARAMETER file: CHARMM format!
Info: PARAMETERS             /share/apps/mcm/trapp4/trapptool/auxi/rip-script-NAMD/pdbtool/parms/charmm27.parameter
Info: USING ARITHMETIC MEAN TO COMBINE L-J SIGMA PARAMETERS
Info: SUMMARY OF PARAMETERS:
Info: 257 BONDS
Info: 656 ANGLES
Info: 1127 DIHEDRAL
Info: 70 IMPROPER
Info: 6 CROSSTERM
Info: 163 VDW
Info: 0 VDW_PAIRS
Info: 0 NBTHOLE_PAIRS
Info: STRUCTURE SUMMARY:
Info: 3312 ATOMS
Info: 3337 BONDS
Info: 6042 ANGLES
Info: 8811 DIHEDRALS
Info: 542 IMPROPERS
Info: 207 CROSSTERMS
Info: 0 EXCLUSIONS
Info: 9933 DEGREES OF FREEDOM
Info: 1650 HYDROGEN GROUPS
Info: 4 ATOMS IN LARGEST HYDROGEN GROUP
Info: 1650 MIGRATION GROUPS
Info: 4 ATOMS IN LARGEST MIGRATION GROUP
Info: TOTAL MASS = 23432.7 amu
Info: TOTAL CHARGE = -6 e
Info: REMOVING COM VELOCITY 0 0 0
Info: NONBONDED TABLE R-SQUARED SPACING: 0.0625
Info: NONBONDED TABLE SIZE: 833 POINTS
ETITLE: TS BOND ANGLE DIHED IMPRP ELECT VDW BOUNDARY MISC KINETIC TOTAL TEMP POTENTIAL TOTAL3 TEMPAVG
ENERGY: 0 412.3663 1025.1601 570.1030 27.2946 -3486.1938 -397.7168 0.0000 0.0000 0.0000 -1848.9867 0.0000 -1848.9867 -1848.9867 0.0000
ENERGY: 400 177.7269 540.7769 598.6407 28.4974 -4913.4438 -927.4608 0.0000 0.0000 0.0000 -4495.2626 0.0000 -4495.2626 -4495.2626 0.0000
ENERGY: 800 183.3462 551.6618 628.6854 31.3039 -5313.1887 -886.5495 0.0000 0.0000 0.0000 -4804.7410 0.0000 -4804.7410 -4804.7410 0.0000
ENERGY: 1200 181.9998 558.6377 637.8770 32.5761 -5519.8651 -848.2523 0.0000 0.0000 0.0000 -4957.0269 0.0000 -4957.0269 -4957.0269 0.0000
ENERGY: 1600 187.1797 571.9131 640.9138 33.2986 -5613.8254 -843.6295 0.0000 0.0000 0.0000 -5024.1496 0.0000 -5024.1496 -5024.1496 0.0000
ENERGY: 2000 185.2886 568.6931 652.8863 34.4114 -5691.6709 -840.0372 0.0000 0.0000 0.0000 -5090.4286 0.0000 -5090.4286 -5090.4286 0.0000
