Info: SIMULATION PARAMETERS:
Info: TIMESTEP               1
Info: NUMBER OF STEPS        1000
Info: STEPS PER CYCLE        10
Info: FIRST LDB TIMESTEP     50
Info: LAST LDB TIMESTEP     -1
Info: HOM BACKGROUND SCALING 1
Info: MIN ATOMS PER PATCH    40
Info: VELOCITY FILE          /scratch/mcm/trapp/jobs/pocket_1f2cd40d-8da8-4e03-b579-e495771b7375/RIPLIG-OUT/RIPLIG1_LEU1/min/min.vel
Info: CENTER OF MASS MOVING INITIALLY? NO
Info: DIELECTRIC             1
Info: EXCLUDE                SCALED ONE-FOUR
Info: 1-4 ELECTROSTATICS SCALED BY 1
Info: MODIFIED 1-4 VDW PARAMETERS WILL BE USED
Info: DCD FILENAME           heating.dcd
Info: DCD FREQUENCY          50
Info: DCD FIRST STEP         50
Info: NO EXTENDED SYSTEM TRAJECTORY OUTPUT
Info: VELOCITY DCD FILENAME    heating.vel.dcd
Info: VELOCITY DCD FREQUENCY   50
Info: VELOCITY DCD FIRST STEP  50
Info: NO FORCE DCD OUTPUT
Info: OUTPUT FILENAME        heating
Info: NO RESTART FILE
Info: SWITCHING ACTIVE
Info: SWITCHING ON           15
Info: SWITCHING OFF          17
Info: PAIRLIST DISTANCE      18
Info: PAIRLIST SHRINK RATE   0.01
Info: PAIRLIST GROW RATE     0.01
Info: PAIRLIST TRIGGER       0.3
Info: PAIRLISTS PER CYCLE    2
Info: PAIRLISTS ENABLED
Info: MARGIN                 0
Info: HYDROGEN GROUP CUTOFF  2.5
Info: PATCH DIMENSION        20.5
Info: CROSSTERM ENERGY INCLUDED IN DIHEDRAL
Info: TIMING OUTPUT STEPS    50
Info: GBIS GENERALIZED BORN IMPLICIT SOLVENT ACTIVE
Info: GBIS SOLVENT DIELECTRIC: 78.5
Info: GBIS PROTEIN DIELECTRIC: 1
Info: GBIS COULOMB RADIUS OFFSET: 0.09 Ang
Info: GBIS ION CONCENTRATION: 0.3 M
Info: GBIS DEBYE SCREENING LENGTH: 5.57102 Ang
Info: GBIS DELTA: 1
Info: GBIS BETA: 0.8
Info: GBIS GAMMA: 4.85
Info: GBIS BORN RADIUS CUTOFF: 15 Ang
Info: GBIS MAX BORN RADIUS: 30 Ang
Info: SASA SURFACE TENSION: 0.005 kcal/mol/Ang^2
Info: LANGEVIN DYNAMICS ACTIVE
Info: LANGEVIN TEMPERATURE   10
Info: LANGEVIN DAMPING COEFFICIENT IS 5 INVERSE PS
Info: LANGEVIN DYNAMICS APPLIED TO HYDROGENS
Info: FULL ELECTROSTATIC EVALUATION FREQUENCY      2
Info: USING VERLET I (r-RESPA) MTS SCHEME.
Info: C1 SPLITTING OF LONG RANGE ELECTROSTATICS
Info: PLACING ATOMS IN PATCHES BY HYDROGEN GROUPS
Info: RIGID BONDS TO HYDROGEN : ALL
Info:         ERROR TOLERANCE : 1e-08
Info:          MAX ITERATIONS : 100
Info: RIGID WATER USING SETTLE ALGORITHM
Info: NONBONDED FORCES EVALUATED EVERY 2 STEPS
Info: RANDOM NUMBER SEED     1716533767
Info: USE HYDROGEN BONDS?    NO
Info: COORDINATE PDB         /scratch/mcm/trapp/jobs/pocket_1f2cd40d-8da8-4e03-b579-e495771b7375/RIPLIG-OUT/RIPLIG1_LEU1/min/min.coor
Info: STRUCTURE FILE         /scratch/mcm/trapp/jobs/pocket_1f2cd40d-8da8-4e03-b579-e495771b7375/RIPLIG-OUT/RIPLIG1_LEU1/min/min.psf
Info: PARAMETER file: CHARMM format!
Info: PARAMETERS             /share/apps/mcm/trapp4/trapptool/auxi/rip-script-NAMD/pdbtool/parms/charmm27.parameter
Info: USING ARITHMETIC MEAN TO COMBINE L-J SIGMA PARAMETERS
Info: SUMMARY OF PARAMETERS:
Info: 257 BONDS
Info: 656 ANGLES
Info: 1127 DIHEDRAL
Info: 70 IMPROPER
Info: 6 CROSSTERM
Info: 163 VDW
Info: 0 VDW_PAIRS
Info: 0 NBTHOLE_PAIRS
Info: STRUCTURE SUMMARY:
Info: 3312 ATOMS
Info: 3337 BONDS
Info: 6042 ANGLES
Info: 8811 DIHEDRALS
Info: 542 IMPROPERS
Info: 207 CROSSTERMS
Info: 0 EXCLUSIONS
Info: 1662 RIGID BONDS
Info: 8274 DEGREES OF FREEDOM
Info: 1650 HYDROGEN GROUPS
Info: 4 ATOMS IN LARGEST HYDROGEN GROUP
Info: 1650 MIGRATION GROUPS
Info: 4 ATOMS IN LARGEST MIGRATION GROUP
Info: TOTAL MASS = 23432.7 amu
Info: TOTAL CHARGE = -6 e
Info: REMOVING COM VELOCITY 0 0 0
Info: NONBONDED TABLE R-SQUARED SPACING: 0.0625
Info: NONBONDED TABLE SIZE: 833 POINTS
TCL: Original numsteps 1000 will be ignored.
TCL: Running for 100 steps
ETITLE: TS BOND ANGLE DIHED IMPRP ELECT VDW BOUNDARY MISC KINETIC TOTAL TEMP POTENTIAL TOTAL3 TEMPAVG
ENERGY: 0 163.0856 568.2798 652.8042 34.3618 -7123.7341 -838.7031 0.0000 0.0000 82.6887 -6461.2172 10.0582 -6543.9059 -6460.5077 10.0582
ENERGY: 20 176.7450 570.1589 645.2973 24.4420 -7082.3981 -884.8342 0.0000 0.0000 91.0908 -6459.4984 11.0802 -6550.5892 -6458.9893 11.0802
ENERGY: 40 181.5210 582.9900 638.0206 28.2965 -7059.8533 -954.1663 0.0000 0.0000 120.0138 -6463.1777 14.5984 -6583.1915 -6462.6771 14.5984
ENERGY: 60 189.4259 576.7842 634.1616 24.5975 -7029.7889 -1000.3616 0.0000 0.0000 131.4708 -6473.7107 15.9920 -6605.1815 -6473.0472 15.9920
ENERGY: 80 188.3402 579.9215 628.2562 25.9313 -7012.8146 -1027.2267 0.0000 0.0000 136.0748 -6481.5174 16.5521 -6617.5922 -6480.7385 16.5521
ENERGY: 100 195.0212 574.7117 622.9064 25.6862 -7015.5915 -1030.0566 0.0000 0.0000 135.0105 -6492.3121 16.4226 -6627.3226 -6491.6890 16.4226
TCL: Setting parameter langevinTemp to 35
TCL: Running for 100 steps
ETITLE: TS BOND ANGLE DIHED IMPRP ELECT VDW BOUNDARY MISC KINETIC TOTAL TEMP POTENTIAL TOTAL3 TEMPAVG
ENERGY: 100 195.0212 574.7117 622.9064 25.6862 -7015.5915 -1030.0566 0.0000 0.0000 282.2923 -6345.0303 34.3379 -6627.3226 -6344.0461 34.3379
ENERGY: 120 208.7716 644.6318 633.3936 29.6687 -7015.9114 -1025.6624 0.0000 0.0000 198.2194 -6326.8888 24.1113 -6525.1082 -6325.9435 24.1113
ENERGY: 140 219.4530 638.2703 638.3602 29.5755 -7031.9467 -1009.3141 0.0000 0.0000 209.3996 -6306.2022 25.4713 -6515.6018 -6305.4931 25.4713
ENERGY: 160 206.7892 639.3833 636.8051 32.6486 -7032.3432 -1001.5068 0.0000 0.0000 225.2884 -6292.9354 27.4040 -6518.2238 -6292.3569 27.4040
ENERGY: 180 204.0979 630.9721 643.5941 29.5030 -7039.0102 -984.4741 0.0000 0.0000 237.6842 -6277.6329 28.9118 -6515.3171 -6277.4853 28.9118
ENERGY: 200 204.7774 647.5251 639.4961 32.5893 -7051.4616 -979.8486 0.0000 0.0000 242.4256 -6264.4966 29.4885 -6506.9222 -6264.0754 29.4885
TCL: Setting parameter langevinTemp to 60
TCL: Running for 100 steps
ETITLE: TS BOND ANGLE DIHED IMPRP ELECT VDW BOUNDARY MISC KINETIC TOTAL TEMP POTENTIAL TOTAL3 TEMPAVG
ENERGY: 200 204.7774 647.5251 639.4961 32.5893 -7051.4616 -979.8486 0.0000 0.0000 488.4522 -6018.4700 59.4151 -6506.9222 -6018.1624 59.4151
ENERGY: 220 241.5473 731.9114 647.3752 32.3690 -7051.9553 -971.3270 0.0000 0.0000 379.2769 -5990.8025 46.1351 -6370.0794 -5990.0693 46.1351
ENERGY: 240 243.4997 744.2950 651.6378 33.2197 -7041.1773 -988.2030 0.0000 0.0000 383.6436 -5973.0845 46.6662 -6356.7281 -5972.4808 46.6662
ENERGY: 260 255.6751 745.7590 644.1525 38.0629 -7044.8532 -1001.1562 0.0000 0.0000 404.0227 -5958.3371 49.1451 -6362.3598 -5958.2154 49.1451
ENERGY: 280 252.9802 751.9027 649.0628 35.3641 -7032.5635 -1009.3931 0.0000 0.0000 417.8760 -5934.7708 50.8303 -6352.6468 -5932.7287 50.8303
ENERGY: 300 260.0720 747.9092 641.0186 35.2812 -7019.2569 -1009.5930 0.0000 0.0000 425.9585 -5918.6104 51.8134 -6344.5689 -5917.2324 51.8134
TCL: Setting parameter langevinTemp to 85
TCL: Running for 100 steps
ETITLE: TS BOND ANGLE DIHED IMPRP ELECT VDW BOUNDARY MISC KINETIC TOTAL TEMP POTENTIAL TOTAL3 TEMPAVG
ENERGY: 300 260.0720 747.9092 641.0186 35.2812 -7019.2569 -1009.5930 0.0000 0.0000 705.6933 -5638.8756 85.8402 -6344.5689 -5638.0392 85.8402
ENERGY: 320 273.5902 849.8226 658.4515 43.0389 -7026.4996 -991.2050 0.0000 0.0000 571.6604 -5621.1411 69.5365 -6192.8015 -5621.1090 69.5365
ENERGY: 340 293.3591 850.5768 668.9419 44.7868 -7040.3508 -994.1824 0.0000 0.0000 583.9229 -5592.9456 71.0281 -6176.8685 -5592.2931 71.0281
ENERGY: 360 282.8817 848.8753 673.8479 47.9261 -7038.5443 -990.7574 0.0000 0.0000 609.4051 -5566.3656 74.1278 -6175.7707 -5563.7953 74.1278
ENERGY: 380 299.5939 841.4962 670.1198 44.3747 -7025.7635 -992.0784 0.0000 0.0000 616.2895 -5545.9678 74.9652 -6162.2573 -5544.4110 74.9652
ENERGY: 400 293.3662 822.7927 665.4660 44.3320 -7003.6995 -994.0091 0.0000 0.0000 642.7103 -5529.0415 78.1790 -6171.7518 -5527.4042 78.1790
TCL: Setting parameter langevinTemp to 110
TCL: Running for 100 steps
ETITLE: TS BOND ANGLE DIHED IMPRP ELECT VDW BOUNDARY MISC KINETIC TOTAL TEMP POTENTIAL TOTAL3 TEMPAVG
ENERGY: 400 293.3662 822.7927 665.4660 44.3320 -7003.6995 -994.0091 0.0000 0.0000 917.2463 -5254.5055 111.5734 -6171.7518 -5253.0766 111.5734
ENERGY: 420 321.8205 926.7364 684.4659 49.0006 -7021.8317 -979.2977 0.0000 0.0000 792.3711 -5226.7350 96.3837 -6019.1061 -5224.0656 96.3837
ENERGY: 440 318.2877 971.7383 671.6898 51.3279 -7043.1798 -974.0650 0.0000 0.0000 812.7858 -5191.4152 98.8669 -6004.2010 -5188.0731 98.8669
ENERGY: 460 347.1595 966.9444 676.9534 52.6675 -7051.6013 -979.5320 0.0000 0.0000 819.1261 -5168.2824 99.6381 -5987.4084 -5168.2289 99.6381
ENERGY: 480 327.8513 961.5639 678.2432 54.2266 -7044.1413 -955.6263 0.0000 0.0000 833.6097 -5144.2730 101.3999 -5977.8826 -5142.0105 101.3999
ENERGY: 500 322.3252 951.9572 690.6083 49.8211 -7014.8893 -974.7624 0.0000 0.0000 839.2031 -5135.7368 102.0803 -5974.9399 -5134.4658 102.0803
TCL: Setting parameter langevinTemp to 135
TCL: Running for 100 steps
ETITLE: TS BOND ANGLE DIHED IMPRP ELECT VDW BOUNDARY MISC KINETIC TOTAL TEMP POTENTIAL TOTAL3 TEMPAVG
ENERGY: 500 322.3252 951.9572 690.6083 49.8211 -7014.8893 -974.7624 0.0000 0.0000 1103.1949 -4871.7450 134.1922 -5974.9399 -4869.8045 134.1922
ENERGY: 520 340.4696 1062.6182 696.1937 55.0873 -7030.7063 -946.3971 0.0000 0.0000 970.7865 -4851.9482 118.0860 -5822.7346 -4848.9067 118.0860
ENERGY: 540 366.9621 1057.7516 693.6020 59.9559 -7029.2337 -964.6574 0.0000 0.0000 997.1870 -4818.4326 121.2974 -5815.6196 -4816.7766 121.2974
ENERGY: 560 364.2201 1048.6952 703.6457 55.3297 -7022.6707 -950.6193 0.0000 0.0000 1000.8698 -4800.5295 121.7454 -5801.3993 -4797.5916 121.7454
ENERGY: 580 369.2211 1025.2815 712.9662 59.4304 -7025.4852 -953.9559 0.0000 0.0000 1018.9466 -4793.5953 123.9442 -5812.5420 -4790.4525 123.9442
ENERGY: 600 354.6964 1047.9372 705.8182 53.3979 -7024.0272 -941.3684 0.0000 0.0000 1041.9418 -4761.6041 126.7413 -5803.5459 -4758.0400 126.7413
TCL: Setting parameter langevinTemp to 160
TCL: Running for 100 steps
ETITLE: TS BOND ANGLE DIHED IMPRP ELECT VDW BOUNDARY MISC KINETIC TOTAL TEMP POTENTIAL TOTAL3 TEMPAVG
ENERGY: 600 354.6964 1047.9372 705.8182 53.3979 -7024.0272 -941.3684 0.0000 0.0000 1311.6995 -4491.8463 159.5546 -5803.5459 -4489.7468 159.5546
ENERGY: 620 396.6785 1111.3353 712.3864 63.0735 -7005.3904 -928.4412 0.0000 0.0000 1201.5482 -4448.8097 146.1558 -5650.3579 -4445.0413 146.1558
ENERGY: 640 382.0698 1138.8331 730.7198 58.3150 -6998.5945 -916.9148 0.0000 0.0000 1166.2202 -4439.3514 141.8585 -5605.5716 -4437.6269 141.8585
ENERGY: 660 404.7205 1125.4836 735.0354 65.2648 -7007.0250 -932.7738 0.0000 0.0000 1182.2768 -4427.0178 143.8116 -5609.2946 -4424.4102 143.8116
ENERGY: 680 377.5058 1160.1352 732.1781 62.1439 -6997.7163 -940.1279 0.0000 0.0000 1185.6520 -4420.2291 144.2222 -5605.8811 -4416.3590 144.2222
ENERGY: 700 410.7274 1123.2685 732.5946 65.2303 -7001.8091 -946.2582 0.0000 0.0000 1212.8538 -4403.3927 147.5310 -5616.2465 -4399.4681 147.5310
TCL: Setting parameter langevinTemp to 185
TCL: Running for 100 steps
ETITLE: TS BOND ANGLE DIHED IMPRP ELECT VDW BOUNDARY MISC KINETIC TOTAL TEMP POTENTIAL TOTAL3 TEMPAVG
ENERGY: 700 410.7274 1123.2685 732.5946 65.2303 -7001.8091 -946.2582 0.0000 0.0000 1537.4950 -4078.7515 187.0202 -5616.2465 -4075.7902 187.0202
ENERGY: 720 417.9119 1229.5577 743.9634 66.6371 -6976.1204 -930.3045 0.0000 0.0000 1399.9414 -4048.4135 170.2883 -5448.3549 -4044.1024 170.2883
ENERGY: 740 462.3910 1246.0234 749.1970 68.9496 -6991.1681 -948.8409 0.0000 0.0000 1399.5966 -4013.8515 170.2463 -5413.4480 -4010.3290 170.2463
ENERGY: 760 436.0436 1260.1464 744.7901 69.7833 -6990.1292 -942.2372 0.0000 0.0000 1397.5154 -4024.0876 169.9932 -5421.6030 -4019.6821 169.9932
ENERGY: 780 446.7570 1263.3246 740.5255 67.0251 -7010.5279 -947.0397 0.0000 0.0000 1416.8037 -4023.1318 172.3394 -5439.9355 -4020.8516 172.3394
ENERGY: 800 451.7222 1267.1242 741.5243 73.2617 -7012.8467 -943.1883 0.0000 0.0000 1415.4764 -4006.9261 172.1779 -5422.4025 -4003.9316 172.1779
TCL: Setting parameter langevinTemp to 210
TCL: Running for 100 steps
ETITLE: TS BOND ANGLE DIHED IMPRP ELECT VDW BOUNDARY MISC KINETIC TOTAL TEMP POTENTIAL TOTAL3 TEMPAVG
ENERGY: 800 451.7222 1267.1242 741.5243 73.2617 -7012.8467 -943.1883 0.0000 0.0000 1704.9063 -3717.4962 207.3841 -5422.4025 -3714.3423 207.3841
ENERGY: 820 477.0319 1363.1472 762.5485 74.0037 -7021.3205 -937.1367 0.0000 0.0000 1563.0729 -3718.6530 190.1315 -5281.7259 -3713.1619 190.1315
ENERGY: 840 464.3571 1335.0390 772.1636 75.1318 -6960.4929 -949.4940 0.0000 0.0000 1582.9628 -3680.3326 192.5509 -5263.2954 -3675.8434 192.5509
ENERGY: 860 469.5257 1374.4983 765.9097 77.7610 -6959.2589 -945.3741 0.0000 0.0000 1601.3988 -3615.5395 194.7935 -5216.9383 -3611.0054 194.7935
ENERGY: 880 481.6035 1375.7130 753.3914 73.3605 -6965.2408 -936.8216 0.0000 0.0000 1641.9234 -3576.0706 199.7229 -5217.9940 -3573.9395 199.7229
ENERGY: 900 455.2228 1405.3089 761.9967 74.4967 -6972.9300 -948.8961 0.0000 0.0000 1680.3846 -3544.4163 204.4013 -5224.8009 -3538.3516 204.4013
TCL: Setting parameter langevinTemp to 235
TCL: Running for 100 steps
ETITLE: TS BOND ANGLE DIHED IMPRP ELECT VDW BOUNDARY MISC KINETIC TOTAL TEMP POTENTIAL TOTAL3 TEMPAVG
ENERGY: 900 455.2228 1405.3089 761.9967 74.4967 -6972.9300 -948.8961 0.0000 0.0000 1940.1463 -3284.6546 235.9986 -5224.8009 -3281.0625 235.9986
ENERGY: 920 531.3794 1448.9351 764.6399 78.3873 -6986.6466 -926.4686 0.0000 0.0000 1826.3458 -3263.4278 222.1559 -5089.7736 -3259.1271 222.1559
ENERGY: 940 520.7781 1478.2943 772.3572 81.6620 -6969.8499 -904.9120 0.0000 0.0000 1784.3433 -3237.3271 217.0467 -5021.6704 -3233.8014 217.0467
ENERGY: 960 514.9147 1440.7140 779.6215 92.9904 -6943.7803 -916.4694 0.0000 0.0000 1810.0009 -3222.0082 220.1677 -5032.0091 -3216.0578 220.1677
ENERGY: 980 528.9043 1449.9716 777.7723 84.8918 -6952.7630 -891.6530 0.0000 0.0000 1814.4488 -3188.4273 220.7088 -5002.8761 -3184.0580 220.7088
ENERGY: 1000 516.1903 1432.5702 772.1711 88.0210 -6922.5359 -919.4117 0.0000 0.0000 1864.9594 -3168.0356 226.8529 -5032.9951 -3161.2149 226.8529
TCL: Setting parameter langevinTemp to 260
TCL: Running for 100 steps
ETITLE: TS BOND ANGLE DIHED IMPRP ELECT VDW BOUNDARY MISC KINETIC TOTAL TEMP POTENTIAL TOTAL3 TEMPAVG
ENERGY: 1000 516.1903 1432.5702 772.1711 88.0210 -6922.5359 -919.4117 0.0000 0.0000 2144.3312 -2888.6639 260.8355 -5032.9951 -2884.3892 260.8355
ENERGY: 1020 583.2947 1578.5014 798.5101 87.3507 -6933.1598 -895.0764 0.0000 0.0000 1945.6814 -2834.8978 236.6718 -4780.5792 -2830.7963 236.6718
ENERGY: 1040 585.7175 1568.1583 802.5860 93.9957 -6911.5213 -903.2418 0.0000 0.0000 1994.4689 -2769.8367 242.6063 -4764.3055 -2765.6745 242.6063
ENERGY: 1060 570.2701 1599.7259 802.0336 108.3238 -6956.9999 -894.8563 0.0000 0.0000 2010.3305 -2761.1722 244.5357 -4771.5027 -2756.9770 244.5357
ENERGY: 1080 586.7379 1593.3494 801.1806 100.5789 -6971.5778 -881.4690 0.0000 0.0000 2043.3320 -2727.8681 248.5500 -4771.2001 -2722.1553 248.5500
ENERGY: 1100 551.0262 1620.2561 804.5865 100.5505 -6979.9503 -880.1180 0.0000 0.0000 2083.7979 -2699.8512 253.4723 -4783.6491 -2696.3295 253.4723
TCL: Setting parameter langevinTemp to 285
TCL: Running for 100 steps
ETITLE: TS BOND ANGLE DIHED IMPRP ELECT VDW BOUNDARY MISC KINETIC TOTAL TEMP POTENTIAL TOTAL3 TEMPAVG
ENERGY: 1100 551.0262 1620.2561 804.5865 100.5505 -6979.9503 -880.1180 0.0000 0.0000 2386.2981 -2397.3510 290.2683 -4783.6491 -2393.8859 290.2683
ENERGY: 1120 594.8289 1688.2230 806.1587 104.1069 -6981.6450 -863.9075 0.0000 0.0000 2240.9036 -2411.3315 272.5825 -4652.2352 -2407.2092 272.5825
ENERGY: 1140 607.6412 1672.5013 811.6840 97.0546 -6946.8476 -838.0485 0.0000 0.0000 2186.2632 -2409.7517 265.9361 -4596.0149 -2400.5748 265.9361
ENERGY: 1160 621.7097 1665.2772 830.2497 98.4421 -6925.7994 -865.8575 0.0000 0.0000 2204.0984 -2371.8796 268.1056 -4575.9781 -2364.2508 268.1056
ENERGY: 1180 615.1312 1717.4910 808.0520 99.7892 -6906.3060 -872.8649 0.0000 0.0000 2239.4155 -2299.2921 272.4015 -4538.7076 -2296.8256 272.4015
ENERGY: 1200 627.5580 1655.8011 811.0339 110.3238 -6910.1282 -906.1882 0.0000 0.0000 2338.7958 -2272.8038 284.4901 -4611.5996 -2268.4108 284.4901
TCL: Setting parameter firsttimestep to 0
