Info: SIMULATION PARAMETERS:
Info: TIMESTEP               1
Info: NUMBER OF STEPS        1000
Info: STEPS PER CYCLE        10
Info: FIRST LDB TIMESTEP     50
Info: LAST LDB TIMESTEP     -1
Info: HOM BACKGROUND SCALING 1
Info: MIN ATOMS PER PATCH    40
Info: VELOCITY FILE          /scratch/mcm/trapp/jobs/pocket_505edb66-961a-471b-9951-1c9dc164f951/RIPLIG-OUT/RIPLIG0_LEU0/min/min.vel
Info: CENTER OF MASS MOVING INITIALLY? NO
Info: DIELECTRIC             1
Info: EXCLUDE                SCALED ONE-FOUR
Info: 1-4 ELECTROSTATICS SCALED BY 1
Info: MODIFIED 1-4 VDW PARAMETERS WILL BE USED
Info: DCD FILENAME           heating.dcd
Info: DCD FREQUENCY          50
Info: DCD FIRST STEP         50
Info: NO EXTENDED SYSTEM TRAJECTORY OUTPUT
Info: VELOCITY DCD FILENAME    heating.vel.dcd
Info: VELOCITY DCD FREQUENCY   50
Info: VELOCITY DCD FIRST STEP  50
Info: NO FORCE DCD OUTPUT
Info: OUTPUT FILENAME        heating
Info: NO RESTART FILE
Info: SWITCHING ACTIVE
Info: SWITCHING ON           15
Info: SWITCHING OFF          17
Info: PAIRLIST DISTANCE      18
Info: PAIRLIST SHRINK RATE   0.01
Info: PAIRLIST GROW RATE     0.01
Info: PAIRLIST TRIGGER       0.3
Info: PAIRLISTS PER CYCLE    2
Info: PAIRLISTS ENABLED
Info: MARGIN                 0
Info: HYDROGEN GROUP CUTOFF  2.5
Info: PATCH DIMENSION        20.5
Info: CROSSTERM ENERGY INCLUDED IN DIHEDRAL
Info: TIMING OUTPUT STEPS    50
Info: GBIS GENERALIZED BORN IMPLICIT SOLVENT ACTIVE
Info: GBIS SOLVENT DIELECTRIC: 78.5
Info: GBIS PROTEIN DIELECTRIC: 1
Info: GBIS COULOMB RADIUS OFFSET: 0.09 Ang
Info: GBIS ION CONCENTRATION: 0.3 M
Info: GBIS DEBYE SCREENING LENGTH: 5.57102 Ang
Info: GBIS DELTA: 1
Info: GBIS BETA: 0.8
Info: GBIS GAMMA: 4.85
Info: GBIS BORN RADIUS CUTOFF: 15 Ang
Info: GBIS MAX BORN RADIUS: 30 Ang
Info: SASA SURFACE TENSION: 0.005 kcal/mol/Ang^2
Info: LANGEVIN DYNAMICS ACTIVE
Info: LANGEVIN TEMPERATURE   10
Info: LANGEVIN DAMPING COEFFICIENT IS 5 INVERSE PS
Info: LANGEVIN DYNAMICS APPLIED TO HYDROGENS
Info: FULL ELECTROSTATIC EVALUATION FREQUENCY      2
Info: USING VERLET I (r-RESPA) MTS SCHEME.
Info: C1 SPLITTING OF LONG RANGE ELECTROSTATICS
Info: PLACING ATOMS IN PATCHES BY HYDROGEN GROUPS
Info: RIGID BONDS TO HYDROGEN : ALL
Info:         ERROR TOLERANCE : 1e-08
Info:          MAX ITERATIONS : 100
Info: RIGID WATER USING SETTLE ALGORITHM
Info: NONBONDED FORCES EVALUATED EVERY 2 STEPS
Info: RANDOM NUMBER SEED     1716533818
Info: USE HYDROGEN BONDS?    NO
Info: COORDINATE PDB         /scratch/mcm/trapp/jobs/pocket_505edb66-961a-471b-9951-1c9dc164f951/RIPLIG-OUT/RIPLIG0_LEU0/min/min.coor
Info: STRUCTURE FILE         /scratch/mcm/trapp/jobs/pocket_505edb66-961a-471b-9951-1c9dc164f951/RIPLIG-OUT/RIPLIG0_LEU0/min/min.psf
Info: PARAMETER file: CHARMM format!
Info: PARAMETERS             /share/apps/mcm/trapp4/trapptool/auxi/rip-script-NAMD/pdbtool/parms/charmm27.parameter
Info: USING ARITHMETIC MEAN TO COMBINE L-J SIGMA PARAMETERS
Info: SUMMARY OF PARAMETERS:
Info: 257 BONDS
Info: 656 ANGLES
Info: 1127 DIHEDRAL
Info: 70 IMPROPER
Info: 6 CROSSTERM
Info: 163 VDW
Info: 0 VDW_PAIRS
Info: 0 NBTHOLE_PAIRS
Info: STRUCTURE SUMMARY:
Info: 3298 ATOMS
Info: 3324 BONDS
Info: 6014 ANGLES
Info: 8769 DIHEDRALS
Info: 546 IMPROPERS
Info: 206 CROSSTERMS
Info: 0 EXCLUSIONS
Info: 1651 RIGID BONDS
Info: 8243 DEGREES OF FREEDOM
Info: 1647 HYDROGEN GROUPS
Info: 4 ATOMS IN LARGEST HYDROGEN GROUP
Info: 1647 MIGRATION GROUPS
Info: 4 ATOMS IN LARGEST MIGRATION GROUP
Info: TOTAL MASS = 23401.6 amu
Info: TOTAL CHARGE = -7 e
Info: REMOVING COM VELOCITY 0 0 0
Info: NONBONDED TABLE R-SQUARED SPACING: 0.0625
Info: NONBONDED TABLE SIZE: 833 POINTS
TCL: Original numsteps 1000 will be ignored.
TCL: Running for 100 steps
ETITLE: TS BOND ANGLE DIHED IMPRP ELECT VDW BOUNDARY MISC KINETIC TOTAL TEMP POTENTIAL TOTAL3 TEMPAVG
ENERGY: 0 159.1125 568.2004 643.1366 34.2648 -7189.5092 -809.6145 0.0000 0.0000 80.2452 -6514.1642 9.7977 -6594.4094 -6513.4677 9.7977
ENERGY: 20 173.9939 569.1132 636.8679 26.0407 -7143.5211 -864.0052 0.0000 0.0000 89.6087 -6511.9019 10.9410 -6601.5107 -6511.2519 10.9410
ENERGY: 40 183.0330 578.0888 629.1494 27.5749 -7107.9058 -939.9532 0.0000 0.0000 112.0082 -6518.0046 13.6759 -6630.0129 -6517.2293 13.6759
ENERGY: 60 185.1429 578.1773 622.7390 26.7312 -7073.2742 -988.1894 0.0000 0.0000 123.9781 -6524.6949 15.1374 -6648.6731 -6523.9790 15.1374
ENERGY: 80 185.5410 568.8847 617.8238 25.7589 -7047.4055 -1011.8621 0.0000 0.0000 128.8710 -6532.3881 15.7348 -6661.2592 -6531.7391 15.7348
ENERGY: 100 187.2500 558.7426 611.1603 26.9155 -7035.6107 -1016.5979 0.0000 0.0000 125.7137 -6542.4266 15.3493 -6668.1403 -6541.9366 15.3493
TCL: Setting parameter langevinTemp to 35
TCL: Running for 100 steps
ETITLE: TS BOND ANGLE DIHED IMPRP ELECT VDW BOUNDARY MISC KINETIC TOTAL TEMP POTENTIAL TOTAL3 TEMPAVG
ENERGY: 100 187.2500 558.7426 611.1603 26.9155 -7035.6107 -1016.5979 0.0000 0.0000 283.6439 -6384.4964 34.6321 -6668.1403 -6383.5735 34.6321
ENERGY: 120 203.5731 630.6698 621.1620 26.7440 -7036.1827 -1007.6765 0.0000 0.0000 194.9038 -6366.8065 23.7972 -6561.7103 -6366.3118 23.7972
ENERGY: 140 202.8638 638.5808 618.2902 30.8814 -7051.7152 -997.9772 0.0000 0.0000 208.0120 -6351.0643 25.3976 -6559.0763 -6350.3301 25.3976
ENERGY: 160 210.3512 634.8753 614.7949 28.3163 -7056.4983 -995.2301 0.0000 0.0000 222.1194 -6341.2714 27.1201 -6563.3907 -6340.3448 27.1201
ENERGY: 180 207.5691 623.8495 612.9127 31.6397 -7062.0076 -979.0604 0.0000 0.0000 232.5370 -6332.5601 28.3921 -6565.0971 -6331.9086 28.3921
ENERGY: 200 208.5909 635.3018 609.0748 28.2652 -7061.2479 -975.4681 0.0000 0.0000 232.9908 -6322.4926 28.4475 -6555.4834 -6321.8796 28.4475
TCL: Setting parameter langevinTemp to 60
TCL: Running for 100 steps
ETITLE: TS BOND ANGLE DIHED IMPRP ELECT VDW BOUNDARY MISC KINETIC TOTAL TEMP POTENTIAL TOTAL3 TEMPAVG
ENERGY: 200 208.5909 635.3018 609.0748 28.2652 -7061.2479 -975.4681 0.0000 0.0000 490.5933 -6064.8901 59.9000 -6555.4834 -6064.3442 59.9000
ENERGY: 220 241.2494 724.6021 621.6784 32.4274 -7068.7437 -972.8856 0.0000 0.0000 376.5639 -6045.1080 45.9773 -6421.6719 -6044.6749 45.9773
ENERGY: 240 234.6241 725.9374 627.6895 34.7034 -7052.1006 -977.8995 0.0000 0.0000 381.5423 -6025.5034 46.5852 -6407.0457 -6025.1029 46.5852
ENERGY: 260 247.7078 720.5099 633.8977 36.7956 -7061.8816 -986.2802 0.0000 0.0000 402.7917 -6006.4591 49.1797 -6409.2508 -6005.9566 49.1797
ENERGY: 280 251.1308 725.4673 630.9184 35.5335 -7057.9298 -981.3712 0.0000 0.0000 406.0846 -5990.1663 49.5817 -6396.2509 -5988.4565 49.5817
ENERGY: 300 251.9155 721.1007 629.4283 35.7266 -7053.9658 -978.4662 0.0000 0.0000 414.2843 -5979.9766 50.5829 -6394.2609 -5979.0713 50.5829
TCL: Setting parameter langevinTemp to 85
TCL: Running for 100 steps
ETITLE: TS BOND ANGLE DIHED IMPRP ELECT VDW BOUNDARY MISC KINETIC TOTAL TEMP POTENTIAL TOTAL3 TEMPAVG
ENERGY: 300 251.9155 721.1007 629.4283 35.7266 -7053.9658 -978.4662 0.0000 0.0000 692.3065 -5701.9544 84.5286 -6394.2609 -5701.1397 84.5286
ENERGY: 320 276.0178 820.3148 644.4052 39.9393 -7050.7668 -969.6770 0.0000 0.0000 555.1788 -5684.5879 67.7857 -6239.7667 -5684.2821 67.7857
ENERGY: 340 285.5529 834.1937 650.0578 39.6858 -7050.9377 -991.4738 0.0000 0.0000 568.0799 -5664.8414 69.3609 -6232.9213 -5663.7812 69.3609
ENERGY: 360 268.4407 809.6386 646.1320 44.6471 -7045.8350 -965.2325 0.0000 0.0000 597.3356 -5644.8735 72.9329 -6242.2091 -5643.2983 72.9329
ENERGY: 380 289.8928 827.9083 643.7909 40.4546 -7056.2484 -963.1322 0.0000 0.0000 598.7724 -5618.5616 73.1083 -6217.3340 -5616.5669 73.1083
ENERGY: 400 285.6756 831.3947 635.8803 46.3684 -7054.6724 -956.7029 0.0000 0.0000 610.6118 -5601.4446 74.5539 -6212.0564 -5600.3345 74.5539
TCL: Setting parameter langevinTemp to 110
TCL: Running for 100 steps
ETITLE: TS BOND ANGLE DIHED IMPRP ELECT VDW BOUNDARY MISC KINETIC TOTAL TEMP POTENTIAL TOTAL3 TEMPAVG
ENERGY: 400 285.6756 831.3947 635.8803 46.3684 -7054.6724 -956.7029 0.0000 0.0000 891.6101 -5320.4462 108.8629 -6212.0564 -5319.4609 108.8629
ENERGY: 420 315.1730 903.8824 672.6897 42.3004 -7054.6203 -957.0718 0.0000 0.0000 782.8792 -5294.7673 95.5872 -6077.6464 -5294.2572 95.5872
ENERGY: 440 323.8194 924.6447 661.4876 52.4063 -7049.7184 -972.6293 0.0000 0.0000 780.9534 -5279.0363 95.3521 -6059.9898 -5276.1308 95.3521
ENERGY: 460 320.6082 933.3916 671.1470 47.9364 -7035.0947 -980.8481 0.0000 0.0000 782.0746 -5260.7851 95.4890 -6042.8596 -5257.9310 95.4890
ENERGY: 480 317.7632 919.7925 663.9720 47.1953 -7000.6415 -975.3087 0.0000 0.0000 793.8660 -5233.3612 96.9287 -6027.2272 -5230.7724 96.9287
ENERGY: 500 309.2491 919.4988 673.4734 43.2965 -7015.1260 -959.9570 0.0000 0.0000 820.2641 -5209.3010 100.1518 -6029.5651 -5207.9818 100.1518
TCL: Setting parameter langevinTemp to 135
TCL: Running for 100 steps
ETITLE: TS BOND ANGLE DIHED IMPRP ELECT VDW BOUNDARY MISC KINETIC TOTAL TEMP POTENTIAL TOTAL3 TEMPAVG
ENERGY: 500 309.2491 919.4988 673.4734 43.2965 -7015.1260 -959.9570 0.0000 0.0000 1144.7393 -4884.8259 139.7693 -6029.5651 -4883.0642 139.7693
ENERGY: 520 344.3852 1043.5313 673.0171 54.0555 -7007.9571 -957.2220 0.0000 0.0000 978.9665 -4871.2234 119.5289 -5850.1899 -4870.3335 119.5289
ENERGY: 540 375.3998 1066.7351 678.3620 51.4276 -7031.3468 -968.8928 0.0000 0.0000 976.0655 -4852.2497 119.1747 -5828.3151 -4849.9490 119.1747
ENERGY: 560 361.8614 1022.8962 684.3661 58.9773 -7039.3685 -943.0236 0.0000 0.0000 1029.8622 -4824.4290 125.7431 -5854.2912 -4820.6139 125.7431
ENERGY: 580 356.5369 1014.6716 693.4050 51.1686 -7028.9179 -919.6822 0.0000 0.0000 1030.7726 -4802.0455 125.8543 -5832.8181 -4797.8029 125.8543
ENERGY: 600 368.6257 1019.3149 678.9910 53.7979 -7031.5226 -930.8006 0.0000 0.0000 1046.0428 -4795.5508 127.7187 -5841.5936 -4793.1655 127.7187
TCL: Setting parameter langevinTemp to 160
TCL: Running for 100 steps
ETITLE: TS BOND ANGLE DIHED IMPRP ELECT VDW BOUNDARY MISC KINETIC TOTAL TEMP POTENTIAL TOTAL3 TEMPAVG
ENERGY: 600 368.6257 1019.3149 678.9910 53.7979 -7031.5226 -930.8006 0.0000 0.0000 1314.4856 -4527.1081 160.4948 -5841.5936 -4524.4332 160.4948
ENERGY: 620 351.7624 1134.7209 699.2777 54.4083 -7002.7382 -916.6804 0.0000 0.0000 1174.1320 -4505.1174 143.3580 -5679.2494 -4502.6492 143.3580
ENERGY: 640 416.0477 1117.3771 711.5517 61.3760 -7004.2891 -944.7718 0.0000 0.0000 1186.4109 -4456.2974 144.8572 -5642.7083 -4454.2548 144.8572
ENERGY: 660 409.2540 1155.1151 697.7653 57.5466 -7010.0641 -954.0470 0.0000 0.0000 1213.8229 -4430.6070 148.2042 -5644.4300 -4427.1458 148.2042
ENERGY: 680 407.4301 1152.1160 695.0139 67.4419 -6992.2017 -947.7870 0.0000 0.0000 1207.0647 -4410.9221 147.3790 -5617.9868 -4409.3043 147.3790
ENERGY: 700 404.3322 1165.6372 706.4650 57.1899 -7009.5766 -951.6257 0.0000 0.0000 1236.9623 -4390.6159 151.0294 -5627.5781 -4385.7736 151.0294
TCL: Setting parameter langevinTemp to 185
TCL: Running for 100 steps
ETITLE: TS BOND ANGLE DIHED IMPRP ELECT VDW BOUNDARY MISC KINETIC TOTAL TEMP POTENTIAL TOTAL3 TEMPAVG
ENERGY: 700 404.3322 1165.6372 706.4650 57.1899 -7009.5766 -951.6257 0.0000 0.0000 1549.6122 -4077.9659 189.2030 -5627.5781 -4075.3406 189.2030
ENERGY: 720 455.5940 1253.4034 728.1295 67.8435 -6985.0336 -957.6873 0.0000 0.0000 1410.5656 -4027.1850 172.2259 -5437.7505 -4023.2278 172.2259
ENERGY: 740 451.6253 1268.0624 716.0526 75.6430 -6981.5553 -941.0921 0.0000 0.0000 1397.5261 -4013.7381 170.6338 -5411.2642 -4011.0786 170.6338
ENERGY: 760 468.9255 1249.4792 723.6052 73.8080 -7004.9971 -917.1251 0.0000 0.0000 1408.8877 -3997.4167 172.0210 -5406.3044 -3994.0089 172.0210
ENERGY: 780 420.5006 1263.1018 718.1029 70.2592 -6975.4137 -898.3699 0.0000 0.0000 1432.2197 -3969.5995 174.8698 -5401.8191 -3965.3461 174.8698
ENERGY: 800 461.3171 1239.7733 724.9856 72.4426 -7003.5919 -901.6496 0.0000 0.0000 1446.6672 -3960.0557 176.6338 -5406.7229 -3957.3621 176.6338
TCL: Setting parameter langevinTemp to 210
TCL: Running for 100 steps
ETITLE: TS BOND ANGLE DIHED IMPRP ELECT VDW BOUNDARY MISC KINETIC TOTAL TEMP POTENTIAL TOTAL3 TEMPAVG
ENERGY: 800 461.3171 1239.7733 724.9856 72.4426 -7003.5919 -901.6496 0.0000 0.0000 1740.4166 -3666.3063 212.4997 -5406.7229 -3662.3378 212.4997
ENERGY: 820 457.1394 1344.5855 738.9282 73.7133 -6978.6966 -893.2706 0.0000 0.0000 1595.5129 -3662.0880 194.8074 -5257.6008 -3659.0306 194.8074
ENERGY: 840 487.1252 1303.4305 752.4413 77.2234 -6981.3673 -924.8688 0.0000 0.0000 1617.3821 -3668.6336 197.4775 -5286.0157 -3663.0049 197.4775
ENERGY: 860 481.1482 1347.3394 742.6481 80.4280 -6966.2629 -939.7577 0.0000 0.0000 1623.8194 -3630.6376 198.2635 -5254.4570 -3621.3468 198.2635
ENERGY: 880 473.9210 1365.5759 744.9940 78.6734 -6962.4281 -926.9633 0.0000 0.0000 1631.7390 -3594.4881 199.2305 -5226.2271 -3590.0193 199.2305
ENERGY: 900 496.4992 1356.0095 734.3382 66.1316 -6985.9672 -915.6233 0.0000 0.0000 1660.2455 -3588.3664 202.7110 -5248.6119 -3580.9411 202.7110
TCL: Setting parameter langevinTemp to 235
TCL: Running for 100 steps
ETITLE: TS BOND ANGLE DIHED IMPRP ELECT VDW BOUNDARY MISC KINETIC TOTAL TEMP POTENTIAL TOTAL3 TEMPAVG
ENERGY: 900 496.4992 1356.0095 734.3382 66.1316 -6985.9672 -915.6233 0.0000 0.0000 1891.8131 -3356.7988 230.9848 -5248.6119 -3352.4718 230.9848
ENERGY: 920 493.5147 1457.0435 746.4538 77.3559 -6981.3881 -914.7224 0.0000 0.0000 1786.7550 -3334.9876 218.1575 -5121.7426 -3330.6887 218.1575
ENERGY: 940 517.8837 1473.5628 770.3117 79.2493 -6957.8126 -932.1175 0.0000 0.0000 1771.8829 -3277.0398 216.3416 -5048.9226 -3269.8515 216.3416
ENERGY: 960 521.5722 1428.1606 770.1150 90.5249 -6943.9159 -901.4057 0.0000 0.0000 1795.1352 -3239.8137 219.1807 -5034.9490 -3233.4930 219.1807
ENERGY: 980 515.2116 1424.5507 777.2541 86.9742 -6939.8505 -886.8255 0.0000 0.0000 1844.9030 -3177.7824 225.2572 -5022.6854 -3172.4120 225.2572
ENERGY: 1000 545.9478 1490.0208 770.9154 90.5527 -6980.1339 -900.0672 0.0000 0.0000 1820.1320 -3162.6323 222.2327 -4982.7643 -3157.0408 222.2327
TCL: Setting parameter langevinTemp to 260
TCL: Running for 100 steps
ETITLE: TS BOND ANGLE DIHED IMPRP ELECT VDW BOUNDARY MISC KINETIC TOTAL TEMP POTENTIAL TOTAL3 TEMPAVG
ENERGY: 1000 545.9478 1490.0208 770.9154 90.5527 -6980.1339 -900.0672 0.0000 0.0000 2143.7137 -2839.0506 261.7411 -4982.7643 -2835.5081 261.7411
ENERGY: 1020 565.7192 1587.5916 793.1001 88.8960 -6949.1853 -891.3773 0.0000 0.0000 2001.2646 -2803.9912 244.3485 -4805.2558 -2799.3132 244.3485
ENERGY: 1040 607.5418 1539.2413 776.1883 91.1285 -6936.6534 -908.4036 0.0000 0.0000 2062.0757 -2768.8816 251.7733 -4830.9573 -2763.1490 251.7733
ENERGY: 1060 558.8875 1566.8383 811.2064 94.6657 -6919.6840 -905.5957 0.0000 0.0000 2041.2130 -2752.4687 249.2260 -4793.6818 -2747.3257 249.2260
ENERGY: 1080 561.7297 1550.2371 792.5903 95.0913 -6927.8778 -906.1733 0.0000 0.0000 2093.4438 -2740.9589 255.6033 -4834.4026 -2734.2918 255.6033
ENERGY: 1100 584.0320 1572.2216 789.2309 102.0143 -6949.1313 -892.3353 0.0000 0.0000 2061.3019 -2732.6659 251.6788 -4793.9678 -2723.0485 251.6788
TCL: Setting parameter langevinTemp to 285
TCL: Running for 100 steps
ETITLE: TS BOND ANGLE DIHED IMPRP ELECT VDW BOUNDARY MISC KINETIC TOTAL TEMP POTENTIAL TOTAL3 TEMPAVG
ENERGY: 1100 584.0320 1572.2216 789.2309 102.0143 -6949.1313 -892.3353 0.0000 0.0000 2365.2779 -2428.6899 288.7934 -4793.9678 -2424.0187 288.7934
ENERGY: 1120 618.0205 1604.5707 800.4470 94.0280 -6920.6014 -868.2253 0.0000 0.0000 2257.3182 -2414.4422 275.6118 -4671.7605 -2407.3478 275.6118
ENERGY: 1140 593.7351 1667.6782 824.1996 114.7064 -6937.5418 -889.6138 0.0000 0.0000 2223.9598 -2402.8764 271.5389 -4626.8362 -2395.4753 271.5389
ENERGY: 1160 619.6575 1671.7489 828.4129 98.4377 -6963.0976 -866.4911 0.0000 0.0000 2215.6352 -2395.6965 270.5225 -4611.3317 -2392.3824 270.5225
ENERGY: 1180 650.2818 1678.0804 840.0022 115.5457 -6987.7234 -883.4756 0.0000 0.0000 2239.0938 -2348.1950 273.3867 -4587.2888 -2337.5778 273.3867
ENERGY: 1200 643.1167 1613.6174 829.4816 95.6156 -6962.5948 -870.8485 0.0000 0.0000 2302.3281 -2349.2839 281.1074 -4651.6120 -2341.9186 281.1074
TCL: Setting parameter firsttimestep to 0
