Info: SIMULATION PARAMETERS:
Info: TIMESTEP               1
Info: NUMBER OF STEPS        10000
Info: STEPS PER CYCLE        10
Info: FIRST LDB TIMESTEP     50
Info: LAST LDB TIMESTEP     -1
Info: HOM BACKGROUND SCALING 1
Info: MIN ATOMS PER PATCH    40
Info: VELOCITY FILE          /scratch/mcm/trapp/jobs/pocket_505edb66-961a-471b-9951-1c9dc164f951/RIPLIG-OUT/RIPLIG0_LEU0/equil/300k/equil.vel
Info: CENTER OF MASS MOVING INITIALLY? NO
Info: DIELECTRIC             1
Info: EXCLUDE                SCALED ONE-FOUR
Info: 1-4 ELECTROSTATICS SCALED BY 1
Info: MODIFIED 1-4 VDW PARAMETERS WILL BE USED
Info: DCD FILENAME           md.dcd
Info: DCD FREQUENCY          50
Info: DCD FIRST STEP         50
Info: NO EXTENDED SYSTEM TRAJECTORY OUTPUT
Info: VELOCITY DCD FILENAME    md.vel.dcd
Info: VELOCITY DCD FREQUENCY   50
Info: VELOCITY DCD FIRST STEP  50
Info: NO FORCE DCD OUTPUT
Info: OUTPUT FILENAME        md
Info: NO RESTART FILE
Info: SWITCHING ACTIVE
Info: SWITCHING ON           15
Info: SWITCHING OFF          17
Info: PAIRLIST DISTANCE      18
Info: PAIRLIST SHRINK RATE   0.01
Info: PAIRLIST GROW RATE     0.01
Info: PAIRLIST TRIGGER       0.3
Info: PAIRLISTS PER CYCLE    2
Info: PAIRLISTS ENABLED
Info: MARGIN                 0
Info: HYDROGEN GROUP CUTOFF  2.5
Info: PATCH DIMENSION        20.5
Info: CROSSTERM ENERGY INCLUDED IN DIHEDRAL
Info: TIMING OUTPUT STEPS    50
Info: HARMONIC CONSTRAINTS ACTIVE
Info: HARMONIC CONS EXP      2
Info: GBIS GENERALIZED BORN IMPLICIT SOLVENT ACTIVE
Info: GBIS SOLVENT DIELECTRIC: 78.5
Info: GBIS PROTEIN DIELECTRIC: 1
Info: GBIS COULOMB RADIUS OFFSET: 0.09 Ang
Info: GBIS ION CONCENTRATION: 0.3 M
Info: GBIS DEBYE SCREENING LENGTH: 5.57102 Ang
Info: GBIS DELTA: 1
Info: GBIS BETA: 0.8
Info: GBIS GAMMA: 4.85
Info: GBIS BORN RADIUS CUTOFF: 15 Ang
Info: GBIS MAX BORN RADIUS: 30 Ang
Info: SASA SURFACE TENSION: 0.005 kcal/mol/Ang^2
Info: LANGEVIN DYNAMICS ACTIVE
Info: LANGEVIN TEMPERATURE   300
Info: LANGEVIN DAMPING COEFFICIENT IS 5 INVERSE PS
Info: LANGEVIN DYNAMICS APPLIED TO HYDROGENS
Info: FULL ELECTROSTATIC EVALUATION FREQUENCY      2
Info: USING VERLET I (r-RESPA) MTS SCHEME.
Info: C1 SPLITTING OF LONG RANGE ELECTROSTATICS
Info: PLACING ATOMS IN PATCHES BY HYDROGEN GROUPS
Info: RIGID BONDS TO HYDROGEN : ALL
Info:         ERROR TOLERANCE : 1e-08
Info:          MAX ITERATIONS : 100
Info: RIGID WATER USING SETTLE ALGORITHM
Info: NONBONDED FORCES EVALUATED EVERY 2 STEPS
Info: RANDOM NUMBER SEED     1716534129
Info: USE HYDROGEN BONDS?    NO
Info: COORDINATE PDB         /scratch/mcm/trapp/jobs/pocket_505edb66-961a-471b-9951-1c9dc164f951/RIPLIG-OUT/RIPLIG0_LEU0/equil/300k/equil.coor
Info: STRUCTURE FILE         /scratch/mcm/trapp/jobs/pocket_505edb66-961a-471b-9951-1c9dc164f951/RIPLIG-OUT/RIPLIG0_LEU0/equil/300k/equil.psf
Info: PARAMETER file: CHARMM format!
Info: PARAMETERS             /share/apps/mcm/trapp4/trapptool/auxi/rip-script-NAMD/pdbtool/parms/charmm27.parameter
Info: USING ARITHMETIC MEAN TO COMBINE L-J SIGMA PARAMETERS
Info: SUMMARY OF PARAMETERS:
Info: 257 BONDS
Info: 656 ANGLES
Info: 1127 DIHEDRAL
Info: 70 IMPROPER
Info: 6 CROSSTERM
Info: 163 VDW
Info: 0 VDW_PAIRS
Info: 0 NBTHOLE_PAIRS
Info: STRUCTURE SUMMARY:
Info: 3298 ATOMS
Info: 3324 BONDS
Info: 6014 ANGLES
Info: 8769 DIHEDRALS
Info: 546 IMPROPERS
Info: 206 CROSSTERMS
Info: 0 EXCLUSIONS
Info: 6 CONSTRAINTS
Info: 1651 RIGID BONDS
Info: 8243 DEGREES OF FREEDOM
Info: 1647 HYDROGEN GROUPS
Info: 4 ATOMS IN LARGEST HYDROGEN GROUP
Info: 1647 MIGRATION GROUPS
Info: 4 ATOMS IN LARGEST MIGRATION GROUP
Info: TOTAL MASS = 23401.6 amu
Info: TOTAL CHARGE = -7 e
Info: REMOVING COM VELOCITY -6.45642e-06 1.11421e-05 4.70316e-06
Info: NONBONDED TABLE R-SQUARED SPACING: 0.0625
Info: NONBONDED TABLE SIZE: 833 POINTS
ETITLE: TS BOND ANGLE DIHED IMPRP ELECT VDW BOUNDARY MISC KINETIC TOTAL TEMP POTENTIAL TOTAL3 TEMPAVG
ENERGY: 0 619.2932 1684.0406 820.9667 102.8530 -6847.1039 -884.4701 0.0000 0.0000 2314.8737 -2189.5467 282.6392 -4504.4203 -2181.3589 282.6392
ENERGY: 2000 653.3681 1729.8532 790.3974 95.8172 -6819.0393 -859.7672 1.0291 0.0000 2479.2113 -1929.1301 302.7043 -4408.3414 -1921.4104 302.7043
ENERGY: 4000 689.5612 1793.7828 793.1878 102.4851 -6876.1162 -852.4432 2.4084 0.0000 2475.7881 -1871.3461 302.2864 -4347.1342 -1865.0315 302.2864
ENERGY: 6000 653.4197 1797.8565 805.8504 97.6556 -6864.9767 -842.6015 2.1668 0.0000 2402.6013 -1948.0280 293.3505 -4350.6293 -1944.3973 293.3505
ENERGY: 8000 676.4774 1776.3279 792.1595 120.0815 -6895.9886 -817.8389 1.3415 0.0000 2525.1026 -1822.3371 308.3075 -4347.4397 -1814.1005 308.3075
ENERGY: 10000 651.9783 1742.4078 804.3844 124.6503 -6877.1693 -830.5522 3.6636 0.0000 2408.0549 -1972.5822 294.0163 -4380.6371 -1962.7683 294.0163
