Info: SIMULATION PARAMETERS:
Info: TIMESTEP               1
Info: NUMBER OF STEPS        1000
Info: STEPS PER CYCLE        10
Info: FIRST LDB TIMESTEP     50
Info: LAST LDB TIMESTEP     -1
Info: HOM BACKGROUND SCALING 1
Info: MIN ATOMS PER PATCH    40
Info: VELOCITY FILE          /scratch/mcm/trapp/jobs/pocket_505edb66-961a-471b-9951-1c9dc164f951/RIPLIG-OUT/RIPLIG2_LEU2/min/min.vel
Info: CENTER OF MASS MOVING INITIALLY? NO
Info: DIELECTRIC             1
Info: EXCLUDE                SCALED ONE-FOUR
Info: 1-4 ELECTROSTATICS SCALED BY 1
Info: MODIFIED 1-4 VDW PARAMETERS WILL BE USED
Info: DCD FILENAME           heating.dcd
Info: DCD FREQUENCY          50
Info: DCD FIRST STEP         50
Info: NO EXTENDED SYSTEM TRAJECTORY OUTPUT
Info: VELOCITY DCD FILENAME    heating.vel.dcd
Info: VELOCITY DCD FREQUENCY   50
Info: VELOCITY DCD FIRST STEP  50
Info: NO FORCE DCD OUTPUT
Info: OUTPUT FILENAME        heating
Info: NO RESTART FILE
Info: SWITCHING ACTIVE
Info: SWITCHING ON           15
Info: SWITCHING OFF          17
Info: PAIRLIST DISTANCE      18
Info: PAIRLIST SHRINK RATE   0.01
Info: PAIRLIST GROW RATE     0.01
Info: PAIRLIST TRIGGER       0.3
Info: PAIRLISTS PER CYCLE    2
Info: PAIRLISTS ENABLED
Info: MARGIN                 0
Info: HYDROGEN GROUP CUTOFF  2.5
Info: PATCH DIMENSION        20.5
Info: CROSSTERM ENERGY INCLUDED IN DIHEDRAL
Info: TIMING OUTPUT STEPS    50
Info: GBIS GENERALIZED BORN IMPLICIT SOLVENT ACTIVE
Info: GBIS SOLVENT DIELECTRIC: 78.5
Info: GBIS PROTEIN DIELECTRIC: 1
Info: GBIS COULOMB RADIUS OFFSET: 0.09 Ang
Info: GBIS ION CONCENTRATION: 0.3 M
Info: GBIS DEBYE SCREENING LENGTH: 5.57102 Ang
Info: GBIS DELTA: 1
Info: GBIS BETA: 0.8
Info: GBIS GAMMA: 4.85
Info: GBIS BORN RADIUS CUTOFF: 15 Ang
Info: GBIS MAX BORN RADIUS: 30 Ang
Info: SASA SURFACE TENSION: 0.005 kcal/mol/Ang^2
Info: LANGEVIN DYNAMICS ACTIVE
Info: LANGEVIN TEMPERATURE   10
Info: LANGEVIN DAMPING COEFFICIENT IS 5 INVERSE PS
Info: LANGEVIN DYNAMICS APPLIED TO HYDROGENS
Info: FULL ELECTROSTATIC EVALUATION FREQUENCY      2
Info: USING VERLET I (r-RESPA) MTS SCHEME.
Info: C1 SPLITTING OF LONG RANGE ELECTROSTATICS
Info: PLACING ATOMS IN PATCHES BY HYDROGEN GROUPS
Info: RIGID BONDS TO HYDROGEN : ALL
Info:         ERROR TOLERANCE : 1e-08
Info:          MAX ITERATIONS : 100
Info: RIGID WATER USING SETTLE ALGORITHM
Info: NONBONDED FORCES EVALUATED EVERY 2 STEPS
Info: RANDOM NUMBER SEED     1716537423
Info: USE HYDROGEN BONDS?    NO
Info: COORDINATE PDB         /scratch/mcm/trapp/jobs/pocket_505edb66-961a-471b-9951-1c9dc164f951/RIPLIG-OUT/RIPLIG2_LEU2/min/min.coor
Info: STRUCTURE FILE         /scratch/mcm/trapp/jobs/pocket_505edb66-961a-471b-9951-1c9dc164f951/RIPLIG-OUT/RIPLIG2_LEU2/min/min.psf
Info: PARAMETER file: CHARMM format!
Info: PARAMETERS             /share/apps/mcm/trapp4/trapptool/auxi/rip-script-NAMD/pdbtool/parms/charmm27.parameter
Info: USING ARITHMETIC MEAN TO COMBINE L-J SIGMA PARAMETERS
Info: SUMMARY OF PARAMETERS:
Info: 257 BONDS
Info: 656 ANGLES
Info: 1127 DIHEDRAL
Info: 70 IMPROPER
Info: 6 CROSSTERM
Info: 163 VDW
Info: 0 VDW_PAIRS
Info: 0 NBTHOLE_PAIRS
Info: STRUCTURE SUMMARY:
Info: 3298 ATOMS
Info: 3324 BONDS
Info: 6014 ANGLES
Info: 8769 DIHEDRALS
Info: 546 IMPROPERS
Info: 206 CROSSTERMS
Info: 0 EXCLUSIONS
Info: 1651 RIGID BONDS
Info: 8243 DEGREES OF FREEDOM
Info: 1647 HYDROGEN GROUPS
Info: 4 ATOMS IN LARGEST HYDROGEN GROUP
Info: 1647 MIGRATION GROUPS
Info: 4 ATOMS IN LARGEST MIGRATION GROUP
Info: TOTAL MASS = 23401.6 amu
Info: TOTAL CHARGE = -7 e
Info: REMOVING COM VELOCITY 0 0 0
Info: NONBONDED TABLE R-SQUARED SPACING: 0.0625
Info: NONBONDED TABLE SIZE: 833 POINTS
TCL: Original numsteps 1000 will be ignored.
TCL: Running for 100 steps
ETITLE: TS BOND ANGLE DIHED IMPRP ELECT VDW BOUNDARY MISC KINETIC TOTAL TEMP POTENTIAL TOTAL3 TEMPAVG
ENERGY: 0 160.1202 568.3575 636.3705 34.3598 -7186.3598 -822.0089 0.0000 0.0000 79.1868 -6529.9739 9.6685 -6609.1606 -6529.2630 9.6685
ENERGY: 20 172.5417 573.1041 628.4639 25.9520 -7139.5894 -874.2352 0.0000 0.0000 86.1512 -6527.6117 10.5188 -6613.7629 -6527.0128 10.5188
ENERGY: 40 181.3779 568.1722 616.3770 27.7564 -7099.3120 -941.5837 0.0000 0.0000 115.7428 -6531.4693 14.1319 -6647.2121 -6530.9090 14.1319
ENERGY: 60 185.7372 567.2396 610.1743 25.9242 -7067.4309 -986.8645 0.0000 0.0000 125.3012 -6539.9189 15.2989 -6665.2201 -6539.3790 15.2989
ENERGY: 80 184.1931 565.2947 600.1762 26.1587 -7048.7099 -1009.3319 0.0000 0.0000 132.9971 -6549.2220 16.2385 -6682.2191 -6548.4565 16.2385
ENERGY: 100 189.7127 560.6202 599.9159 26.1401 -7044.9177 -1017.5207 0.0000 0.0000 126.8774 -6559.1721 15.4914 -6686.0495 -6558.2661 15.4914
TCL: Setting parameter langevinTemp to 35
TCL: Running for 100 steps
ETITLE: TS BOND ANGLE DIHED IMPRP ELECT VDW BOUNDARY MISC KINETIC TOTAL TEMP POTENTIAL TOTAL3 TEMPAVG
ENERGY: 100 189.7127 560.6202 599.9159 26.1401 -7044.9177 -1017.5207 0.0000 0.0000 288.6596 -6397.3899 35.2445 -6686.0495 -6396.4905 35.2445
ENERGY: 120 211.0996 631.0561 607.5933 28.2567 -7047.0512 -1008.5618 0.0000 0.0000 197.1928 -6380.4144 24.0767 -6577.6073 -6379.9940 24.0767
ENERGY: 140 213.7282 630.6286 618.8718 29.3219 -7063.1249 -1001.7594 0.0000 0.0000 206.3213 -6366.0125 25.1912 -6572.3337 -6365.5430 25.1912
ENERGY: 160 210.3465 628.1468 610.9134 31.8531 -7068.2957 -996.1240 0.0000 0.0000 228.0000 -6355.1598 27.8381 -6583.1598 -6354.3065 27.8381
ENERGY: 180 218.3364 633.6734 610.9034 30.5662 -7089.1019 -980.4985 0.0000 0.0000 235.0187 -6341.1024 28.6951 -6576.1211 -6339.9345 28.6951
ENERGY: 200 209.8132 633.1061 607.0783 30.7494 -7083.3124 -965.4210 0.0000 0.0000 238.1039 -6329.8825 29.0718 -6567.9864 -6328.9816 29.0718
TCL: Setting parameter langevinTemp to 60
TCL: Running for 100 steps
ETITLE: TS BOND ANGLE DIHED IMPRP ELECT VDW BOUNDARY MISC KINETIC TOTAL TEMP POTENTIAL TOTAL3 TEMPAVG
ENERGY: 200 209.8132 633.1061 607.0783 30.7494 -7083.3124 -965.4210 0.0000 0.0000 498.5478 -6069.4387 60.8712 -6567.9864 -6069.1207 60.8712
ENERGY: 220 240.0464 719.8819 627.1125 33.5620 -7091.7303 -971.8590 0.0000 0.0000 398.7914 -6044.1951 48.6912 -6442.9865 -6043.3948 48.6912
ENERGY: 240 250.8351 723.4889 632.5548 35.9951 -7067.8771 -980.0712 0.0000 0.0000 381.1529 -6023.9214 46.5376 -6405.0743 -6023.3650 46.5376
ENERGY: 260 241.7465 707.4384 627.6033 39.9939 -7053.7213 -984.5183 0.0000 0.0000 418.6776 -6002.7799 51.1193 -6421.4575 -6001.9195 51.1193
ENERGY: 280 255.0022 714.7072 621.1028 34.6697 -7046.5599 -991.2978 0.0000 0.0000 423.2522 -5989.1236 51.6778 -6412.3759 -5986.9188 51.6778
ENERGY: 300 240.6539 722.7325 622.6980 38.9750 -7033.6951 -999.6941 0.0000 0.0000 432.0407 -5976.2891 52.7509 -6408.3298 -5975.0054 52.7509
TCL: Setting parameter langevinTemp to 85
TCL: Running for 100 steps
ETITLE: TS BOND ANGLE DIHED IMPRP ELECT VDW BOUNDARY MISC KINETIC TOTAL TEMP POTENTIAL TOTAL3 TEMPAVG
ENERGY: 300 240.6539 722.7325 622.6980 38.9750 -7033.6951 -999.6941 0.0000 0.0000 703.3394 -5704.9904 85.8757 -6408.3298 -5704.2939 85.8757
ENERGY: 320 287.1791 818.2219 643.4720 40.0893 -7059.3415 -977.8370 0.0000 0.0000 566.9259 -5681.2903 69.2200 -6248.2162 -5681.4344 69.2200
ENERGY: 340 287.4261 826.7948 645.3002 42.9989 -7056.9540 -981.3740 0.0000 0.0000 580.2199 -5655.5879 70.8431 -6235.8079 -5654.3817 70.8431
ENERGY: 360 289.7669 821.7617 642.8486 41.5208 -7047.6525 -985.1199 0.0000 0.0000 600.2741 -5636.6002 73.2917 -6236.8743 -5635.3696 73.2917
ENERGY: 380 279.5835 835.4532 640.1408 43.4702 -7043.8713 -988.9267 0.0000 0.0000 617.9259 -5616.2244 75.4469 -6234.1503 -5613.9471 75.4469
ENERGY: 400 276.8416 839.5791 645.3740 43.4708 -7039.5016 -984.9168 0.0000 0.0000 625.8228 -5593.3300 76.4111 -6219.1528 -5589.9782 76.4111
TCL: Setting parameter langevinTemp to 110
TCL: Running for 100 steps
ETITLE: TS BOND ANGLE DIHED IMPRP ELECT VDW BOUNDARY MISC KINETIC TOTAL TEMP POTENTIAL TOTAL3 TEMPAVG
ENERGY: 400 276.8416 839.5791 645.3740 43.4708 -7039.5016 -984.9168 0.0000 0.0000 911.5382 -5307.6146 111.2961 -6219.1528 -5306.7934 111.2961
ENERGY: 420 317.9424 933.4826 657.5582 44.4299 -7055.9783 -972.4663 0.0000 0.0000 811.3482 -5263.6832 99.0632 -6075.0315 -5260.9182 99.0632
ENERGY: 440 325.2027 938.3058 658.6003 45.9764 -7034.1099 -959.1660 0.0000 0.0000 798.1478 -5227.0428 97.4515 -6025.1907 -5223.6833 97.4515
ENERGY: 460 319.9316 940.2944 665.1707 47.3710 -7041.6555 -965.7996 0.0000 0.0000 831.6616 -5203.0257 101.5434 -6034.6872 -5201.0471 101.5434
ENERGY: 480 329.9541 961.7747 662.1643 44.0073 -7040.8406 -960.8672 0.0000 0.0000 814.5574 -5189.2501 99.4550 -6003.8074 -5188.8452 99.4550
ENERGY: 500 317.4763 952.9279 651.8664 48.8564 -7032.2910 -954.4275 0.0000 0.0000 832.8272 -5182.7643 101.6857 -6015.5915 -5179.7204 101.6857
TCL: Setting parameter langevinTemp to 135
TCL: Running for 100 steps
ETITLE: TS BOND ANGLE DIHED IMPRP ELECT VDW BOUNDARY MISC KINETIC TOTAL TEMP POTENTIAL TOTAL3 TEMPAVG
ENERGY: 500 317.4763 952.9279 651.8664 48.8564 -7032.2910 -954.4275 0.0000 0.0000 1089.9637 -4925.6278 133.0813 -6015.5915 -4923.9633 133.0813
ENERGY: 520 361.0240 1031.1584 679.7012 51.8977 -7050.9567 -937.8700 0.0000 0.0000 979.8895 -4885.1558 119.6416 -5865.0453 -4882.5451 119.6416
ENERGY: 540 357.1200 1032.3559 690.2657 57.5117 -7065.4450 -928.8965 0.0000 0.0000 989.9537 -4867.1346 120.8704 -5857.0883 -4866.0358 120.8704
ENERGY: 560 357.1949 1039.5965 682.4959 59.9543 -7051.1110 -933.5319 0.0000 0.0000 1002.5962 -4842.8052 122.4140 -5845.4014 -4839.9642 122.4140
ENERGY: 580 362.2628 1034.6079 685.2049 62.1340 -7039.6383 -948.6712 0.0000 0.0000 1011.7193 -4832.3805 123.5279 -5844.0998 -4827.7793 123.5279
ENERGY: 600 360.6071 1038.8383 677.4617 57.9517 -7031.3294 -948.4819 0.0000 0.0000 1023.7626 -4821.1898 124.9984 -5844.9525 -4818.7120 124.9984
TCL: Setting parameter langevinTemp to 160
TCL: Running for 100 steps
ETITLE: TS BOND ANGLE DIHED IMPRP ELECT VDW BOUNDARY MISC KINETIC TOTAL TEMP POTENTIAL TOTAL3 TEMPAVG
ENERGY: 600 360.6071 1038.8383 677.4617 57.9517 -7031.3294 -948.4819 0.0000 0.0000 1290.1175 -4554.8350 157.5195 -5844.9525 -4552.2887 157.5195
ENERGY: 620 391.2427 1128.9814 690.2414 62.7237 -7033.5670 -947.9013 0.0000 0.0000 1164.2755 -4544.0036 142.1546 -5708.2791 -4543.5109 142.1546
ENERGY: 640 373.6166 1127.3351 692.8619 63.8993 -7006.8840 -940.1105 0.0000 0.0000 1176.5125 -4512.7691 143.6487 -5689.2816 -4507.7253 143.6487
ENERGY: 660 423.0665 1110.7598 698.3656 62.3867 -7012.8115 -951.6587 0.0000 0.0000 1200.0783 -4469.8131 146.5260 -5669.8914 -4467.6099 146.5260
ENERGY: 680 403.7357 1127.2248 689.0076 67.3204 -6988.8659 -960.7571 0.0000 0.0000 1207.8030 -4454.5315 147.4691 -5662.3345 -4453.5620 147.4691
ENERGY: 700 397.3258 1139.8283 689.7915 62.4718 -6992.2923 -958.7401 0.0000 0.0000 1236.8548 -4424.7602 151.0163 -5661.6151 -4422.0633 151.0163
TCL: Setting parameter langevinTemp to 185
TCL: Running for 100 steps
ETITLE: TS BOND ANGLE DIHED IMPRP ELECT VDW BOUNDARY MISC KINETIC TOTAL TEMP POTENTIAL TOTAL3 TEMPAVG
ENERGY: 700 397.3258 1139.8283 689.7915 62.4718 -6992.2923 -958.7401 0.0000 0.0000 1489.6254 -4171.9896 181.8788 -5661.6151 -4169.7847 181.8788
ENERGY: 720 440.9600 1224.2978 697.7143 69.9276 -6984.6331 -949.3964 0.0000 0.0000 1374.7674 -4126.3624 167.8550 -5501.1298 -4123.5466 167.8550
ENERGY: 740 443.7691 1202.2498 715.4979 72.2360 -6966.2289 -952.6070 0.0000 0.0000 1396.7211 -4088.3620 170.5355 -5485.0831 -4084.1826 170.5355
ENERGY: 760 424.9027 1206.5418 728.3568 70.5325 -6958.0027 -977.2013 0.0000 0.0000 1433.7213 -4071.1489 175.0531 -5504.8702 -4068.9552 175.0531
ENERGY: 780 436.3705 1261.4989 720.8264 78.3775 -6994.3172 -959.6045 0.0000 0.0000 1411.0526 -4045.7958 172.2853 -5456.8483 -4041.5924 172.2853
ENERGY: 800 459.3227 1253.9477 717.0229 70.7917 -6971.6335 -974.0427 0.0000 0.0000 1418.7734 -4025.8177 173.2280 -5444.5911 -4022.7651 173.2280
TCL: Setting parameter langevinTemp to 210
TCL: Running for 100 steps
ETITLE: TS BOND ANGLE DIHED IMPRP ELECT VDW BOUNDARY MISC KINETIC TOTAL TEMP POTENTIAL TOTAL3 TEMPAVG
ENERGY: 800 459.3227 1253.9477 717.0229 70.7917 -6971.6335 -974.0427 0.0000 0.0000 1696.6991 -3747.8920 207.1619 -5444.5911 -3744.8238 207.1619
ENERGY: 820 463.1013 1362.6889 739.9659 77.9247 -6989.6012 -941.0446 0.0000 0.0000 1566.3645 -3720.6006 191.2484 -5286.9650 -3716.7011 191.2484
ENERGY: 840 472.9749 1322.4756 746.1572 82.3429 -6980.2005 -930.6773 0.0000 0.0000 1583.4934 -3703.4339 193.3398 -5286.9273 -3700.5825 193.3398
ENERGY: 860 485.5395 1319.4032 731.7107 87.7121 -6981.4102 -905.8494 0.0000 0.0000 1572.9354 -3689.9587 192.0507 -5262.8941 -3685.4914 192.0507
ENERGY: 880 459.9975 1349.6253 740.5822 79.2654 -6983.5308 -899.3947 0.0000 0.0000 1587.3888 -3666.0663 193.8154 -5253.4551 -3664.8967 193.8154
ENERGY: 900 469.9742 1329.0854 739.9957 81.0095 -6994.9442 -895.1124 0.0000 0.0000 1614.8189 -3655.1730 197.1646 -5269.9919 -3651.4403 197.1646
TCL: Setting parameter langevinTemp to 235
TCL: Running for 100 steps
ETITLE: TS BOND ANGLE DIHED IMPRP ELECT VDW BOUNDARY MISC KINETIC TOTAL TEMP POTENTIAL TOTAL3 TEMPAVG
ENERGY: 900 469.9742 1329.0854 739.9957 81.0095 -6994.9442 -895.1124 0.0000 0.0000 1942.4180 -3327.5739 237.1635 -5269.9919 -3323.8270 237.1635
ENERGY: 920 517.7826 1419.0815 760.1473 77.0488 -6967.3132 -893.1019 0.0000 0.0000 1805.8294 -3280.5255 220.4864 -5086.3549 -3277.2691 220.4864
ENERGY: 940 543.5234 1373.4074 769.6768 94.8154 -6957.8807 -887.0066 0.0000 0.0000 1822.3229 -3241.1415 222.5002 -5063.4644 -3232.0167 222.5002
ENERGY: 960 529.6161 1452.7040 768.2981 96.7060 -6965.6265 -913.7175 0.0000 0.0000 1827.4192 -3204.6008 223.1224 -5032.0199 -3193.7139 223.1224
ENERGY: 980 509.9147 1473.2537 765.1427 89.9971 -6942.6044 -927.9617 0.0000 0.0000 1903.3426 -3128.9152 232.3925 -5032.2578 -3124.9184 232.3925
ENERGY: 1000 547.7710 1487.8870 762.5140 98.0106 -6941.5575 -933.9732 0.0000 0.0000 1867.8143 -3111.5339 228.0546 -4979.3482 -3106.4871 228.0546
TCL: Setting parameter langevinTemp to 260
TCL: Running for 100 steps
ETITLE: TS BOND ANGLE DIHED IMPRP ELECT VDW BOUNDARY MISC KINETIC TOTAL TEMP POTENTIAL TOTAL3 TEMPAVG
ENERGY: 1000 547.7710 1487.8870 762.5140 98.0106 -6941.5575 -933.9732 0.0000 0.0000 2148.9141 -2830.4341 262.3760 -4979.3482 -2827.0920 262.3760
ENERGY: 1020 587.5190 1546.7072 775.0997 91.2425 -6935.0828 -950.0893 0.0000 0.0000 2080.8925 -2803.7113 254.0708 -4884.6038 -2795.7303 254.0708
ENERGY: 1040 568.3192 1635.4903 775.2914 99.2613 -6916.6769 -949.4920 0.0000 0.0000 2003.9665 -2783.8402 244.6783 -4787.8067 -2779.7828 244.6783
ENERGY: 1060 580.8585 1580.8271 776.6495 83.9949 -6919.8397 -916.4120 0.0000 0.0000 2036.4419 -2777.4800 248.6435 -4813.9218 -2771.8687 248.6435
ENERGY: 1080 563.4074 1569.2095 762.4571 89.7541 -6934.4652 -909.2039 0.0000 0.0000 2131.1872 -2727.6538 260.2116 -4858.8410 -2720.1721 260.2116
ENERGY: 1100 533.6604 1624.0912 772.5111 104.5656 -6958.9690 -868.8869 0.0000 0.0000 2077.4082 -2715.6195 253.6454 -4793.0277 -2709.9610 253.6454
TCL: Setting parameter langevinTemp to 285
TCL: Running for 100 steps
ETITLE: TS BOND ANGLE DIHED IMPRP ELECT VDW BOUNDARY MISC KINETIC TOTAL TEMP POTENTIAL TOTAL3 TEMPAVG
ENERGY: 1100 533.6604 1624.0912 772.5111 104.5656 -6958.9690 -868.8869 0.0000 0.0000 2368.4394 -2424.5883 289.1794 -4793.0277 -2419.9659 289.1794
ENERGY: 1120 582.8164 1712.0488 781.8830 89.8388 -6906.6763 -894.6510 0.0000 0.0000 2209.5409 -2425.1994 269.7784 -4634.7403 -2416.8797 269.7784
ENERGY: 1140 614.7637 1661.9283 785.7542 96.5567 -6924.5061 -892.6222 0.0000 0.0000 2265.2429 -2392.8826 276.5794 -4658.1254 -2389.9350 276.5794
ENERGY: 1160 599.0504 1648.4380 805.9936 98.1784 -6918.0529 -892.8354 0.0000 0.0000 2235.1275 -2424.1004 272.9024 -4659.2279 -2421.0212 272.9024
ENERGY: 1180 646.4164 1646.8054 818.9719 97.7475 -6909.1126 -926.8638 0.0000 0.0000 2244.2790 -2381.7562 274.0198 -4626.0352 -2374.6786 274.0198
ENERGY: 1200 619.7507 1670.2701 819.3650 100.9329 -6942.0409 -894.1363 0.0000 0.0000 2274.1241 -2351.7346 277.6638 -4625.8586 -2344.2328 277.6638
TCL: Setting parameter firsttimestep to 0
