Info: SIMULATION PARAMETERS:
Info: TIMESTEP               1
Info: NUMBER OF STEPS        10000
Info: STEPS PER CYCLE        10
Info: FIRST LDB TIMESTEP     50
Info: LAST LDB TIMESTEP     -1
Info: HOM BACKGROUND SCALING 1
Info: MIN ATOMS PER PATCH    40
Info: VELOCITY FILE          /scratch/mcm/trapp/jobs/pocket_505edb66-961a-471b-9951-1c9dc164f951/RIPLIG-OUT/RIPLIG2_LEU2/equil/300k/equil.vel
Info: CENTER OF MASS MOVING INITIALLY? NO
Info: DIELECTRIC             1
Info: EXCLUDE                SCALED ONE-FOUR
Info: 1-4 ELECTROSTATICS SCALED BY 1
Info: MODIFIED 1-4 VDW PARAMETERS WILL BE USED
Info: DCD FILENAME           md.dcd
Info: DCD FREQUENCY          50
Info: DCD FIRST STEP         50
Info: NO EXTENDED SYSTEM TRAJECTORY OUTPUT
Info: VELOCITY DCD FILENAME    md.vel.dcd
Info: VELOCITY DCD FREQUENCY   50
Info: VELOCITY DCD FIRST STEP  50
Info: NO FORCE DCD OUTPUT
Info: OUTPUT FILENAME        md
Info: NO RESTART FILE
Info: SWITCHING ACTIVE
Info: SWITCHING ON           15
Info: SWITCHING OFF          17
Info: PAIRLIST DISTANCE      18
Info: PAIRLIST SHRINK RATE   0.01
Info: PAIRLIST GROW RATE     0.01
Info: PAIRLIST TRIGGER       0.3
Info: PAIRLISTS PER CYCLE    2
Info: PAIRLISTS ENABLED
Info: MARGIN                 0
Info: HYDROGEN GROUP CUTOFF  2.5
Info: PATCH DIMENSION        20.5
Info: CROSSTERM ENERGY INCLUDED IN DIHEDRAL
Info: TIMING OUTPUT STEPS    50
Info: HARMONIC CONSTRAINTS ACTIVE
Info: HARMONIC CONS EXP      2
Info: GBIS GENERALIZED BORN IMPLICIT SOLVENT ACTIVE
Info: GBIS SOLVENT DIELECTRIC: 78.5
Info: GBIS PROTEIN DIELECTRIC: 1
Info: GBIS COULOMB RADIUS OFFSET: 0.09 Ang
Info: GBIS ION CONCENTRATION: 0.3 M
Info: GBIS DEBYE SCREENING LENGTH: 5.57102 Ang
Info: GBIS DELTA: 1
Info: GBIS BETA: 0.8
Info: GBIS GAMMA: 4.85
Info: GBIS BORN RADIUS CUTOFF: 15 Ang
Info: GBIS MAX BORN RADIUS: 30 Ang
Info: SASA SURFACE TENSION: 0.005 kcal/mol/Ang^2
Info: LANGEVIN DYNAMICS ACTIVE
Info: LANGEVIN TEMPERATURE   300
Info: LANGEVIN DAMPING COEFFICIENT IS 5 INVERSE PS
Info: LANGEVIN DYNAMICS APPLIED TO HYDROGENS
Info: FULL ELECTROSTATIC EVALUATION FREQUENCY      2
Info: USING VERLET I (r-RESPA) MTS SCHEME.
Info: C1 SPLITTING OF LONG RANGE ELECTROSTATICS
Info: PLACING ATOMS IN PATCHES BY HYDROGEN GROUPS
Info: RIGID BONDS TO HYDROGEN : ALL
Info:         ERROR TOLERANCE : 1e-08
Info:          MAX ITERATIONS : 100
Info: RIGID WATER USING SETTLE ALGORITHM
Info: NONBONDED FORCES EVALUATED EVERY 2 STEPS
Info: RANDOM NUMBER SEED     1716537707
Info: USE HYDROGEN BONDS?    NO
Info: COORDINATE PDB         /scratch/mcm/trapp/jobs/pocket_505edb66-961a-471b-9951-1c9dc164f951/RIPLIG-OUT/RIPLIG2_LEU2/equil/300k/equil.coor
Info: STRUCTURE FILE         /scratch/mcm/trapp/jobs/pocket_505edb66-961a-471b-9951-1c9dc164f951/RIPLIG-OUT/RIPLIG2_LEU2/equil/300k/equil.psf
Info: PARAMETER file: CHARMM format!
Info: PARAMETERS             /share/apps/mcm/trapp4/trapptool/auxi/rip-script-NAMD/pdbtool/parms/charmm27.parameter
Info: USING ARITHMETIC MEAN TO COMBINE L-J SIGMA PARAMETERS
Info: SUMMARY OF PARAMETERS:
Info: 257 BONDS
Info: 656 ANGLES
Info: 1127 DIHEDRAL
Info: 70 IMPROPER
Info: 6 CROSSTERM
Info: 163 VDW
Info: 0 VDW_PAIRS
Info: 0 NBTHOLE_PAIRS
Info: STRUCTURE SUMMARY:
Info: 3298 ATOMS
Info: 3324 BONDS
Info: 6014 ANGLES
Info: 8769 DIHEDRALS
Info: 546 IMPROPERS
Info: 206 CROSSTERMS
Info: 0 EXCLUSIONS
Info: 6 CONSTRAINTS
Info: 1651 RIGID BONDS
Info: 8243 DEGREES OF FREEDOM
Info: 1647 HYDROGEN GROUPS
Info: 4 ATOMS IN LARGEST HYDROGEN GROUP
Info: 1647 MIGRATION GROUPS
Info: 4 ATOMS IN LARGEST MIGRATION GROUP
Info: TOTAL MASS = 23401.6 amu
Info: TOTAL CHARGE = -7 e
Info: REMOVING COM VELOCITY -9.9703e-06 4.02884e-06 2.24625e-06
Info: NONBONDED TABLE R-SQUARED SPACING: 0.0625
Info: NONBONDED TABLE SIZE: 833 POINTS
ETITLE: TS BOND ANGLE DIHED IMPRP ELECT VDW BOUNDARY MISC KINETIC TOTAL TEMP POTENTIAL TOTAL3 TEMPAVG
ENERGY: 0 649.6130 1688.2253 771.1450 101.0161 -6904.8423 -864.5664 0.0000 0.0000 2387.5247 -2171.8847 291.5097 -4559.4093 -2163.8951 291.5097
ENERGY: 2000 656.0617 1806.8108 809.8859 103.7435 -6860.8057 -868.4949 1.1832 0.0000 2484.9044 -1866.7111 303.3994 -4351.6155 -1860.4648 303.3994
ENERGY: 4000 658.2940 1807.7430 800.9256 109.0198 -6869.6297 -877.2458 2.0287 0.0000 2461.4514 -1907.4130 300.5359 -4368.8644 -1901.9662 300.5359
ENERGY: 6000 631.8528 1749.3407 793.3980 106.5671 -6904.9005 -812.9129 3.0973 0.0000 2427.8772 -2005.6803 296.4366 -4433.5575 -1995.9693 296.4366
ENERGY: 8000 667.1726 1767.3385 791.0666 117.3853 -6856.1853 -895.9246 1.7616 0.0000 2470.7015 -1936.6838 301.6653 -4407.3853 -1926.4327 301.6653
ENERGY: 10000 675.8476 1758.7113 813.8900 116.0053 -6859.6884 -856.1189 2.3671 0.0000 2480.5889 -1868.3970 302.8725 -4348.9860 -1863.8645 302.8725
