Info: SIMULATION PARAMETERS:
Info: TIMESTEP               1
Info: NUMBER OF STEPS        1000
Info: STEPS PER CYCLE        10
Info: FIRST LDB TIMESTEP     50
Info: LAST LDB TIMESTEP     -1
Info: HOM BACKGROUND SCALING 1
Info: MIN ATOMS PER PATCH    40
Info: VELOCITY FILE          /scratch/mcm/trapp/jobs/pocket_1f2cd40d-8da8-4e03-b579-e495771b7375/RIPLIG-OUT/RIPLIG3_LEU3/min/min.vel
Info: CENTER OF MASS MOVING INITIALLY? NO
Info: DIELECTRIC             1
Info: EXCLUDE                SCALED ONE-FOUR
Info: 1-4 ELECTROSTATICS SCALED BY 1
Info: MODIFIED 1-4 VDW PARAMETERS WILL BE USED
Info: DCD FILENAME           heating.dcd
Info: DCD FREQUENCY          50
Info: DCD FIRST STEP         50
Info: NO EXTENDED SYSTEM TRAJECTORY OUTPUT
Info: VELOCITY DCD FILENAME    heating.vel.dcd
Info: VELOCITY DCD FREQUENCY   50
Info: VELOCITY DCD FIRST STEP  50
Info: NO FORCE DCD OUTPUT
Info: OUTPUT FILENAME        heating
Info: NO RESTART FILE
Info: SWITCHING ACTIVE
Info: SWITCHING ON           15
Info: SWITCHING OFF          17
Info: PAIRLIST DISTANCE      18
Info: PAIRLIST SHRINK RATE   0.01
Info: PAIRLIST GROW RATE     0.01
Info: PAIRLIST TRIGGER       0.3
Info: PAIRLISTS PER CYCLE    2
Info: PAIRLISTS ENABLED
Info: MARGIN                 0
Info: HYDROGEN GROUP CUTOFF  2.5
Info: PATCH DIMENSION        20.5
Info: CROSSTERM ENERGY INCLUDED IN DIHEDRAL
Info: TIMING OUTPUT STEPS    50
Info: GBIS GENERALIZED BORN IMPLICIT SOLVENT ACTIVE
Info: GBIS SOLVENT DIELECTRIC: 78.5
Info: GBIS PROTEIN DIELECTRIC: 1
Info: GBIS COULOMB RADIUS OFFSET: 0.09 Ang
Info: GBIS ION CONCENTRATION: 0.3 M
Info: GBIS DEBYE SCREENING LENGTH: 5.57102 Ang
Info: GBIS DELTA: 1
Info: GBIS BETA: 0.8
Info: GBIS GAMMA: 4.85
Info: GBIS BORN RADIUS CUTOFF: 15 Ang
Info: GBIS MAX BORN RADIUS: 30 Ang
Info: SASA SURFACE TENSION: 0.005 kcal/mol/Ang^2
Info: LANGEVIN DYNAMICS ACTIVE
Info: LANGEVIN TEMPERATURE   10
Info: LANGEVIN DAMPING COEFFICIENT IS 5 INVERSE PS
Info: LANGEVIN DYNAMICS APPLIED TO HYDROGENS
Info: FULL ELECTROSTATIC EVALUATION FREQUENCY      2
Info: USING VERLET I (r-RESPA) MTS SCHEME.
Info: C1 SPLITTING OF LONG RANGE ELECTROSTATICS
Info: PLACING ATOMS IN PATCHES BY HYDROGEN GROUPS
Info: RIGID BONDS TO HYDROGEN : ALL
Info:         ERROR TOLERANCE : 1e-08
Info:          MAX ITERATIONS : 100
Info: RIGID WATER USING SETTLE ALGORITHM
Info: NONBONDED FORCES EVALUATED EVERY 2 STEPS
Info: RANDOM NUMBER SEED     1716537425
Info: USE HYDROGEN BONDS?    NO
Info: COORDINATE PDB         /scratch/mcm/trapp/jobs/pocket_1f2cd40d-8da8-4e03-b579-e495771b7375/RIPLIG-OUT/RIPLIG3_LEU3/min/min.coor
Info: STRUCTURE FILE         /scratch/mcm/trapp/jobs/pocket_1f2cd40d-8da8-4e03-b579-e495771b7375/RIPLIG-OUT/RIPLIG3_LEU3/min/min.psf
Info: PARAMETER file: CHARMM format!
Info: PARAMETERS             /share/apps/mcm/trapp4/trapptool/auxi/rip-script-NAMD/pdbtool/parms/charmm27.parameter
Info: USING ARITHMETIC MEAN TO COMBINE L-J SIGMA PARAMETERS
Info: SUMMARY OF PARAMETERS:
Info: 257 BONDS
Info: 656 ANGLES
Info: 1127 DIHEDRAL
Info: 70 IMPROPER
Info: 6 CROSSTERM
Info: 163 VDW
Info: 0 VDW_PAIRS
Info: 0 NBTHOLE_PAIRS
Info: STRUCTURE SUMMARY:
Info: 3312 ATOMS
Info: 3337 BONDS
Info: 6042 ANGLES
Info: 8811 DIHEDRALS
Info: 542 IMPROPERS
Info: 207 CROSSTERMS
Info: 0 EXCLUSIONS
Info: 1662 RIGID BONDS
Info: 8274 DEGREES OF FREEDOM
Info: 1650 HYDROGEN GROUPS
Info: 4 ATOMS IN LARGEST HYDROGEN GROUP
Info: 1650 MIGRATION GROUPS
Info: 4 ATOMS IN LARGEST MIGRATION GROUP
Info: TOTAL MASS = 23432.7 amu
Info: TOTAL CHARGE = -6 e
Info: REMOVING COM VELOCITY 0 0 0
Info: NONBONDED TABLE R-SQUARED SPACING: 0.0625
Info: NONBONDED TABLE SIZE: 833 POINTS
TCL: Original numsteps 1000 will be ignored.
TCL: Running for 100 steps
ETITLE: TS BOND ANGLE DIHED IMPRP ELECT VDW BOUNDARY MISC KINETIC TOTAL TEMP POTENTIAL TOTAL3 TEMPAVG
ENERGY: 0 162.7326 567.0229 647.6674 34.0353 -7160.8193 -835.1616 0.0000 0.0000 78.6499 -6505.8730 9.5669 -6584.5228 -6505.1647 9.5669
ENERGY: 20 177.5858 566.2674 645.1068 24.5547 -7121.5853 -886.3493 0.0000 0.0000 90.5411 -6503.8789 11.0134 -6594.4200 -6503.3611 11.0134
ENERGY: 40 180.9824 574.0921 638.1654 28.3630 -7091.6507 -956.1419 0.0000 0.0000 116.9635 -6509.2262 14.2274 -6626.1896 -6508.6205 14.2274
ENERGY: 60 189.2811 574.4396 632.7878 24.8967 -7058.4249 -1010.3939 0.0000 0.0000 128.9233 -6518.4903 15.6822 -6647.4136 -6517.8653 15.6822
ENERGY: 80 189.5415 579.7248 631.8688 25.9242 -7045.7709 -1039.6023 0.0000 0.0000 128.7876 -6529.5263 15.6657 -6658.3139 -6528.8860 15.6657
ENERGY: 100 191.0782 573.1598 625.7612 26.4481 -7036.0658 -1043.5095 0.0000 0.0000 126.5559 -6536.5721 15.3942 -6663.1280 -6536.0095 15.3942
TCL: Setting parameter langevinTemp to 35
TCL: Running for 100 steps
ETITLE: TS BOND ANGLE DIHED IMPRP ELECT VDW BOUNDARY MISC KINETIC TOTAL TEMP POTENTIAL TOTAL3 TEMPAVG
ENERGY: 100 191.0782 573.1598 625.7612 26.4481 -7036.0658 -1043.5095 0.0000 0.0000 290.6948 -6372.4332 35.3600 -6663.1280 -6371.5592 35.3600
ENERGY: 120 213.3269 636.4891 636.8645 29.5021 -7037.2606 -1034.9285 0.0000 0.0000 203.7246 -6352.2819 24.7810 -6556.0065 -6351.3108 24.7810
ENERGY: 140 218.3836 642.0534 634.1568 28.3812 -7054.4031 -1019.9985 0.0000 0.0000 212.3481 -6339.0786 25.8299 -6551.4267 -6338.3456 25.8299
ENERGY: 160 213.5133 636.4275 633.9120 33.4523 -7069.0018 -1008.4839 0.0000 0.0000 232.3724 -6327.8081 28.2657 -6560.1806 -6326.3542 28.2657
ENERGY: 180 214.4582 636.0332 631.9969 28.4674 -7065.1223 -997.5999 0.0000 0.0000 236.9624 -6314.8041 28.8240 -6551.7665 -6313.6156 28.8240
ENERGY: 200 209.3869 636.0973 634.1064 32.2637 -7063.6032 -988.4474 0.0000 0.0000 238.2661 -6301.9302 28.9826 -6540.1963 -6301.0940 28.9826
TCL: Setting parameter langevinTemp to 60
TCL: Running for 100 steps
ETITLE: TS BOND ANGLE DIHED IMPRP ELECT VDW BOUNDARY MISC KINETIC TOTAL TEMP POTENTIAL TOTAL3 TEMPAVG
ENERGY: 200 209.3869 636.0973 634.1064 32.2637 -7063.6032 -988.4474 0.0000 0.0000 497.7924 -6042.4039 60.5513 -6540.1963 -6042.1708 60.5513
ENERGY: 220 232.7684 735.1217 637.4471 31.5336 -7061.8861 -976.5149 0.0000 0.0000 386.9427 -6014.5875 47.0675 -6401.5302 -6014.5257 47.0675
ENERGY: 240 250.9486 725.5584 653.1334 38.6005 -7058.1680 -993.3338 0.0000 0.0000 396.2604 -5987.0003 48.2009 -6383.2607 -5986.4413 48.2009
ENERGY: 260 250.9273 730.2568 648.0757 35.3771 -7048.5624 -1002.7168 0.0000 0.0000 414.3604 -5972.2819 50.4026 -6386.6424 -5971.4721 50.4026
ENERGY: 280 255.1682 726.8501 653.5651 34.3366 -7042.5834 -1014.9321 0.0000 0.0000 430.6527 -5956.9427 52.3844 -6387.5954 -5955.8030 52.3844
ENERGY: 300 249.0080 740.7320 653.2914 38.1716 -7048.6376 -1015.7876 0.0000 0.0000 438.8259 -5944.3964 53.3786 -6383.2223 -5943.2370 53.3786
TCL: Setting parameter langevinTemp to 85
TCL: Running for 100 steps
ETITLE: TS BOND ANGLE DIHED IMPRP ELECT VDW BOUNDARY MISC KINETIC TOTAL TEMP POTENTIAL TOTAL3 TEMPAVG
ENERGY: 300 249.0080 740.7320 653.2914 38.1716 -7048.6376 -1015.7876 0.0000 0.0000 703.4144 -5679.8079 85.5630 -6383.2223 -5678.8178 85.5630
ENERGY: 320 276.3855 837.1362 662.8675 37.5541 -7044.3093 -999.2906 0.0000 0.0000 576.6003 -5653.0563 70.1374 -6229.6566 -5651.1222 70.1374
ENERGY: 340 273.7387 806.6006 661.3057 43.4997 -7022.0651 -978.1664 0.0000 0.0000 593.0852 -5622.0015 72.1426 -6215.0867 -5619.5413 72.1426
ENERGY: 360 282.3486 815.7716 667.6082 43.1933 -7028.0514 -979.9649 0.0000 0.0000 598.7732 -5600.3214 72.8345 -6199.0946 -5599.2347 72.8345
ENERGY: 380 276.7072 821.9474 670.0040 41.3505 -7021.0580 -977.7828 0.0000 0.0000 604.3055 -5584.5263 73.5075 -6188.8317 -5583.4908 73.5075
ENERGY: 400 285.7290 803.3409 659.2370 43.1120 -7015.8338 -984.6620 0.0000 0.0000 628.8575 -5580.2193 76.4940 -6209.0768 -5578.5010 76.4940
TCL: Setting parameter langevinTemp to 110
TCL: Running for 100 steps
ETITLE: TS BOND ANGLE DIHED IMPRP ELECT VDW BOUNDARY MISC KINETIC TOTAL TEMP POTENTIAL TOTAL3 TEMPAVG
ENERGY: 400 285.7290 803.3409 659.2370 43.1120 -7015.8338 -984.6620 0.0000 0.0000 916.6035 -5292.4734 111.4952 -6209.0768 -5291.0127 111.4952
ENERGY: 420 294.2253 932.6638 685.8990 44.9382 -7024.6632 -974.3282 0.0000 0.0000 781.5084 -5259.7567 95.0623 -6041.2651 -5260.0366 95.0623
ENERGY: 440 317.9297 940.7431 684.1604 52.2011 -7048.5114 -963.3760 0.0000 0.0000 789.4207 -5227.4324 96.0248 -6016.8531 -5224.2400 96.0248
ENERGY: 460 317.7919 918.9853 681.8017 49.8102 -7016.9133 -977.2514 0.0000 0.0000 818.5591 -5207.2165 99.5692 -6025.7755 -5205.8262 99.5692
ENERGY: 480 329.5209 952.9314 689.7079 51.3428 -7032.4827 -987.2921 0.0000 0.0000 798.4880 -5197.7838 97.1277 -5996.2717 -5195.1702 97.1277
ENERGY: 500 341.7499 932.1734 681.9348 47.6710 -7000.6591 -997.5965 0.0000 0.0000 826.0594 -5168.6670 100.4815 -5994.7264 -5166.2367 100.4815
TCL: Setting parameter langevinTemp to 135
TCL: Running for 100 steps
ETITLE: TS BOND ANGLE DIHED IMPRP ELECT VDW BOUNDARY MISC KINETIC TOTAL TEMP POTENTIAL TOTAL3 TEMPAVG
ENERGY: 500 341.7499 932.1734 681.9348 47.6710 -7000.6591 -997.5965 0.0000 0.0000 1123.6084 -4871.1180 136.6752 -5994.7264 -4869.7725 136.6752
ENERGY: 520 363.0039 1062.8198 705.9852 53.1400 -7019.8524 -997.9869 0.0000 0.0000 1007.2417 -4825.6488 122.5204 -5832.8905 -4824.1656 122.5204
ENERGY: 540 369.3105 1037.0423 700.5017 59.0475 -6993.2048 -988.9016 0.0000 0.0000 997.1547 -4819.0497 121.2935 -5816.2044 -4815.2966 121.2935
ENERGY: 560 387.7894 1035.4656 696.0645 66.1131 -7017.2357 -973.5364 0.0000 0.0000 1014.5422 -4790.7973 123.4085 -5805.3395 -4787.7916 123.4085
ENERGY: 580 351.1855 1046.1816 717.1371 57.1457 -7009.5320 -974.2620 0.0000 0.0000 1041.9149 -4770.2291 126.7381 -5812.1440 -4767.2166 126.7381
ENERGY: 600 377.1816 1007.5752 709.2668 68.5600 -7013.1418 -961.6789 0.0000 0.0000 1065.3232 -4746.9140 129.5855 -5812.2372 -4744.1135 129.5855
TCL: Setting parameter langevinTemp to 160
TCL: Running for 100 steps
ETITLE: TS BOND ANGLE DIHED IMPRP ELECT VDW BOUNDARY MISC KINETIC TOTAL TEMP POTENTIAL TOTAL3 TEMPAVG
ENERGY: 600 377.1816 1007.5752 709.2668 68.5600 -7013.1418 -961.6789 0.0000 0.0000 1281.4671 -4530.7701 155.8771 -5812.2372 -4528.4893 155.8771
ENERGY: 620 386.7359 1150.2288 734.1148 60.7283 -7022.8807 -967.0238 0.0000 0.0000 1159.7242 -4498.3725 141.0683 -5658.0966 -4498.4423 141.0683
ENERGY: 640 409.1280 1113.1226 736.2708 66.3781 -7000.2650 -966.1304 0.0000 0.0000 1170.8902 -4470.6058 142.4266 -5641.4960 -4466.1860 142.4266
ENERGY: 660 403.3628 1135.7332 727.2908 64.2095 -6997.7648 -970.7555 0.0000 0.0000 1186.1538 -4451.7701 144.2832 -5637.9239 -4447.7334 144.2832
ENERGY: 680 402.2083 1163.5387 726.2729 74.2617 -7009.0396 -974.4892 0.0000 0.0000 1183.4484 -4433.7988 143.9542 -5617.2472 -4428.8429 143.9542
ENERGY: 700 398.3810 1167.1660 723.3056 66.0386 -7025.9181 -940.3120 0.0000 0.0000 1211.5526 -4399.7863 147.3727 -5611.3389 -4396.3711 147.3727
TCL: Setting parameter langevinTemp to 185
TCL: Running for 100 steps
ETITLE: TS BOND ANGLE DIHED IMPRP ELECT VDW BOUNDARY MISC KINETIC TOTAL TEMP POTENTIAL TOTAL3 TEMPAVG
ENERGY: 700 398.3810 1167.1660 723.3056 66.0386 -7025.9181 -940.3120 0.0000 0.0000 1477.5143 -4133.8246 179.7242 -5611.3389 -4130.8760 179.7242
ENERGY: 720 428.6126 1251.0398 738.1776 69.2520 -7017.9659 -926.8005 0.0000 0.0000 1358.2948 -4099.3897 165.2224 -5457.6844 -4097.1366 165.2224
ENERGY: 740 439.4371 1235.5045 728.3231 74.2793 -7009.5045 -931.8454 0.0000 0.0000 1394.2792 -4069.5267 169.5995 -5463.8059 -4066.3243 169.5995
ENERGY: 760 428.3886 1249.1799 749.2799 74.5686 -7002.7087 -948.1507 0.0000 0.0000 1419.9842 -4029.4581 172.7263 -5449.4424 -4023.7666 172.7263
ENERGY: 780 456.8242 1253.7457 738.1269 76.3888 -7036.7666 -926.9589 0.0000 0.0000 1438.0645 -4000.5754 174.9255 -5438.6399 -3993.5476 174.9255
ENERGY: 800 446.2934 1261.1771 748.6872 75.9006 -7020.3784 -930.4864 0.0000 0.0000 1424.9568 -3993.8497 173.3311 -5418.8065 -3988.4083 173.3311
TCL: Setting parameter langevinTemp to 210
TCL: Running for 100 steps
ETITLE: TS BOND ANGLE DIHED IMPRP ELECT VDW BOUNDARY MISC KINETIC TOTAL TEMP POTENTIAL TOTAL3 TEMPAVG
ENERGY: 800 446.2934 1261.1771 748.6872 75.9006 -7020.3784 -930.4864 0.0000 0.0000 1734.8947 -3683.9118 211.0318 -5418.8065 -3680.4876 211.0318
ENERGY: 820 473.2482 1399.2539 752.6846 75.5204 -7046.3776 -896.7924 0.0000 0.0000 1597.7206 -3644.7423 194.3460 -5242.4629 -3642.4394 194.3460
ENERGY: 840 489.5190 1378.2223 765.8522 80.3364 -6990.3098 -928.3205 0.0000 0.0000 1572.5397 -3632.1607 191.2831 -5204.7004 -3628.4558 191.2831
ENERGY: 860 484.3531 1352.6991 747.8055 81.9286 -6986.5275 -947.3614 0.0000 0.0000 1658.8010 -3608.3015 201.7758 -5267.1025 -3602.3122 201.7758
ENERGY: 880 484.5708 1427.1008 765.5225 72.9082 -6998.1527 -949.5788 0.0000 0.0000 1621.7276 -3575.9016 197.2662 -5197.6292 -3571.0165 197.2662
ENERGY: 900 493.2672 1389.6397 771.7004 77.0239 -7000.0599 -955.2098 0.0000 0.0000 1670.9695 -3552.6690 203.2560 -5223.6384 -3546.5990 203.2560
TCL: Setting parameter langevinTemp to 235
TCL: Running for 100 steps
ETITLE: TS BOND ANGLE DIHED IMPRP ELECT VDW BOUNDARY MISC KINETIC TOTAL TEMP POTENTIAL TOTAL3 TEMPAVG
ENERGY: 900 493.2672 1389.6397 771.7004 77.0239 -7000.0599 -955.2098 0.0000 0.0000 1950.6822 -3272.9562 237.2801 -5223.6384 -3269.2408 237.2801
ENERGY: 920 537.3081 1506.2825 783.3486 86.2754 -7002.6334 -942.7217 0.0000 0.0000 1775.8977 -3256.2427 216.0194 -5032.1404 -3250.5384 216.0194
ENERGY: 940 529.1148 1478.2546 762.7465 90.8105 -6972.8402 -921.4394 0.0000 0.0000 1798.0467 -3235.3066 218.7136 -5033.3533 -3231.3507 218.7136
ENERGY: 960 541.3163 1468.0841 783.0988 86.3979 -6978.8855 -917.4386 0.0000 0.0000 1808.3963 -3209.0307 219.9725 -5017.4270 -3201.0678 219.9725
ENERGY: 980 513.5892 1505.5758 782.6146 85.9884 -7017.9294 -887.6480 0.0000 0.0000 1845.1308 -3172.6785 224.4409 -5017.8093 -3163.2267 224.4409
ENERGY: 1000 549.5253 1422.0737 790.4799 87.1328 -6960.1983 -891.3255 0.0000 0.0000 1861.8879 -3140.4242 226.4792 -5002.3121 -3134.5729 226.4792
TCL: Setting parameter langevinTemp to 260
TCL: Running for 100 steps
ETITLE: TS BOND ANGLE DIHED IMPRP ELECT VDW BOUNDARY MISC KINETIC TOTAL TEMP POTENTIAL TOTAL3 TEMPAVG
ENERGY: 1000 549.5253 1422.0737 790.4799 87.1328 -6960.1983 -891.3255 0.0000 0.0000 2149.4119 -2852.9002 261.4535 -5002.3121 -2849.1460 261.4535
ENERGY: 1020 564.0786 1600.0305 803.5753 85.2717 -7009.2382 -879.1120 0.0000 0.0000 2013.7024 -2821.6917 244.9459 -4835.3941 -2819.3044 244.9459
ENERGY: 1040 572.6759 1521.8483 809.9351 92.0755 -6976.4798 -869.6989 0.0000 0.0000 2034.6846 -2814.9594 247.4982 -4849.6439 -2807.8540 247.4982
ENERGY: 1060 567.1263 1588.7333 810.4653 99.1077 -6980.3043 -912.2348 0.0000 0.0000 2030.5173 -2796.5892 246.9912 -4827.1065 -2792.1821 246.9912
ENERGY: 1080 587.8936 1564.6243 817.8155 94.1181 -6979.4199 -922.9721 0.0000 0.0000 2055.5532 -2782.3873 250.0366 -4837.9404 -2774.9650 250.0366
ENERGY: 1100 565.6873 1611.1473 821.1070 93.5155 -6989.0280 -941.0109 0.0000 0.0000 2078.3532 -2760.2287 252.8100 -4838.5819 -2752.3312 252.8100
TCL: Setting parameter langevinTemp to 285
TCL: Running for 100 steps
ETITLE: TS BOND ANGLE DIHED IMPRP ELECT VDW BOUNDARY MISC KINETIC TOTAL TEMP POTENTIAL TOTAL3 TEMPAVG
ENERGY: 1100 565.6873 1611.1473 821.1070 93.5155 -6989.0280 -941.0109 0.0000 0.0000 2330.9214 -2507.6605 283.5323 -4838.5819 -2502.0176 283.5323
ENERGY: 1120 609.1095 1640.6624 828.7665 95.1769 -6940.2287 -904.0342 0.0000 0.0000 2157.9353 -2512.6122 262.4903 -4670.5475 -2504.0598 262.4903
ENERGY: 1140 603.3925 1665.8277 835.0490 109.0855 -6944.8815 -902.8680 0.0000 0.0000 2141.4522 -2492.9427 260.4853 -4634.3949 -2490.1846 260.4853
ENERGY: 1160 616.5402 1662.3068 843.7173 109.2198 -6986.9684 -891.7004 0.0000 0.0000 2188.6578 -2458.2268 266.2274 -4646.8846 -2454.1133 266.2274
ENERGY: 1180 629.9749 1621.1541 833.9758 105.4414 -6988.8988 -882.4940 0.0000 0.0000 2227.0294 -2453.8171 270.8949 -4680.8465 -2443.8574 270.8949
ENERGY: 1200 605.8572 1652.7019 814.5462 107.6142 -6949.8809 -886.4713 0.0000 0.0000 2237.8575 -2417.7752 272.2120 -4655.6327 -2413.8423 272.2120
TCL: Setting parameter firsttimestep to 0
