Info: SIMULATION PARAMETERS:
Info: TIMESTEP               1
Info: NUMBER OF STEPS        10000
Info: STEPS PER CYCLE        10
Info: FIRST LDB TIMESTEP     50
Info: LAST LDB TIMESTEP     -1
Info: HOM BACKGROUND SCALING 1
Info: MIN ATOMS PER PATCH    40
Info: VELOCITY FILE          /scratch/mcm/trapp/jobs/pocket_1f2cd40d-8da8-4e03-b579-e495771b7375/RIPLIG-OUT/RIPLIG3_LEU3/equil/300k/equil.vel
Info: CENTER OF MASS MOVING INITIALLY? NO
Info: DIELECTRIC             1
Info: EXCLUDE                SCALED ONE-FOUR
Info: 1-4 ELECTROSTATICS SCALED BY 1
Info: MODIFIED 1-4 VDW PARAMETERS WILL BE USED
Info: DCD FILENAME           md.dcd
Info: DCD FREQUENCY          50
Info: DCD FIRST STEP         50
Info: NO EXTENDED SYSTEM TRAJECTORY OUTPUT
Info: VELOCITY DCD FILENAME    md.vel.dcd
Info: VELOCITY DCD FREQUENCY   50
Info: VELOCITY DCD FIRST STEP  50
Info: NO FORCE DCD OUTPUT
Info: OUTPUT FILENAME        md
Info: NO RESTART FILE
Info: SWITCHING ACTIVE
Info: SWITCHING ON           15
Info: SWITCHING OFF          17
Info: PAIRLIST DISTANCE      18
Info: PAIRLIST SHRINK RATE   0.01
Info: PAIRLIST GROW RATE     0.01
Info: PAIRLIST TRIGGER       0.3
Info: PAIRLISTS PER CYCLE    2
Info: PAIRLISTS ENABLED
Info: MARGIN                 0
Info: HYDROGEN GROUP CUTOFF  2.5
Info: PATCH DIMENSION        20.5
Info: CROSSTERM ENERGY INCLUDED IN DIHEDRAL
Info: TIMING OUTPUT STEPS    50
Info: HARMONIC CONSTRAINTS ACTIVE
Info: HARMONIC CONS EXP      2
Info: GBIS GENERALIZED BORN IMPLICIT SOLVENT ACTIVE
Info: GBIS SOLVENT DIELECTRIC: 78.5
Info: GBIS PROTEIN DIELECTRIC: 1
Info: GBIS COULOMB RADIUS OFFSET: 0.09 Ang
Info: GBIS ION CONCENTRATION: 0.3 M
Info: GBIS DEBYE SCREENING LENGTH: 5.57102 Ang
Info: GBIS DELTA: 1
Info: GBIS BETA: 0.8
Info: GBIS GAMMA: 4.85
Info: GBIS BORN RADIUS CUTOFF: 15 Ang
Info: GBIS MAX BORN RADIUS: 30 Ang
Info: SASA SURFACE TENSION: 0.005 kcal/mol/Ang^2
Info: LANGEVIN DYNAMICS ACTIVE
Info: LANGEVIN TEMPERATURE   300
Info: LANGEVIN DAMPING COEFFICIENT IS 5 INVERSE PS
Info: LANGEVIN DYNAMICS APPLIED TO HYDROGENS
Info: FULL ELECTROSTATIC EVALUATION FREQUENCY      2
Info: USING VERLET I (r-RESPA) MTS SCHEME.
Info: C1 SPLITTING OF LONG RANGE ELECTROSTATICS
Info: PLACING ATOMS IN PATCHES BY HYDROGEN GROUPS
Info: RIGID BONDS TO HYDROGEN : ALL
Info:         ERROR TOLERANCE : 1e-08
Info:          MAX ITERATIONS : 100
Info: RIGID WATER USING SETTLE ALGORITHM
Info: NONBONDED FORCES EVALUATED EVERY 2 STEPS
Info: RANDOM NUMBER SEED     1716537718
Info: USE HYDROGEN BONDS?    NO
Info: COORDINATE PDB         /scratch/mcm/trapp/jobs/pocket_1f2cd40d-8da8-4e03-b579-e495771b7375/RIPLIG-OUT/RIPLIG3_LEU3/equil/300k/equil.coor
Info: STRUCTURE FILE         /scratch/mcm/trapp/jobs/pocket_1f2cd40d-8da8-4e03-b579-e495771b7375/RIPLIG-OUT/RIPLIG3_LEU3/equil/300k/equil.psf
Info: PARAMETER file: CHARMM format!
Info: PARAMETERS             /share/apps/mcm/trapp4/trapptool/auxi/rip-script-NAMD/pdbtool/parms/charmm27.parameter
Info: USING ARITHMETIC MEAN TO COMBINE L-J SIGMA PARAMETERS
Info: SUMMARY OF PARAMETERS:
Info: 257 BONDS
Info: 656 ANGLES
Info: 1127 DIHEDRAL
Info: 70 IMPROPER
Info: 6 CROSSTERM
Info: 163 VDW
Info: 0 VDW_PAIRS
Info: 0 NBTHOLE_PAIRS
Info: STRUCTURE SUMMARY:
Info: 3312 ATOMS
Info: 3337 BONDS
Info: 6042 ANGLES
Info: 8811 DIHEDRALS
Info: 542 IMPROPERS
Info: 207 CROSSTERMS
Info: 0 EXCLUSIONS
Info: 6 CONSTRAINTS
Info: 1662 RIGID BONDS
Info: 8274 DEGREES OF FREEDOM
Info: 1650 HYDROGEN GROUPS
Info: 4 ATOMS IN LARGEST HYDROGEN GROUP
Info: 1650 MIGRATION GROUPS
Info: 4 ATOMS IN LARGEST MIGRATION GROUP
Info: TOTAL MASS = 23432.7 amu
Info: TOTAL CHARGE = -6 e
Info: REMOVING COM VELOCITY -1.35527e-06 3.40115e-06 2.15638e-06
Info: NONBONDED TABLE R-SQUARED SPACING: 0.0625
Info: NONBONDED TABLE SIZE: 833 POINTS
ETITLE: TS BOND ANGLE DIHED IMPRP ELECT VDW BOUNDARY MISC KINETIC TOTAL TEMP POTENTIAL TOTAL3 TEMPAVG
ENERGY: 0 637.0142 1724.4472 824.9273 99.1468 -6927.3902 -867.5692 0.0000 0.0000 2320.9955 -2188.4285 282.3249 -4509.4239 -2180.1674 282.3249
ENERGY: 2000 664.7025 1770.1452 808.4530 107.1079 -6855.6210 -883.9989 2.6264 0.0000 2426.6039 -1959.9811 295.1710 -4386.5850 -1950.5725 295.1710
ENERGY: 4000 638.1550 1802.7802 814.2222 108.8795 -6890.9055 -830.6474 1.2370 0.0000 2493.0427 -1863.2362 303.2526 -4356.2789 -1858.3869 303.2526
ENERGY: 6000 684.8393 1825.3284 809.5636 107.3059 -6862.9474 -883.6498 1.3630 0.0000 2444.3580 -1873.8389 297.3306 -4318.1969 -1864.5304 297.3306
ENERGY: 8000 715.6761 1823.7061 816.5905 108.0210 -6920.6964 -887.0772 0.9643 0.0000 2438.9413 -1903.8744 296.6718 -4342.8157 -1896.9042 296.6718
ENERGY: 10000 683.9341 1785.4790 782.9410 105.6042 -6899.0005 -871.3305 1.4863 0.0000 2500.0499 -1910.8364 304.1050 -4410.8863 -1900.9279 304.1050
