Info: SIMULATION PARAMETERS:
Info: TIMESTEP               1
Info: NUMBER OF STEPS        2000
Info: STEPS PER CYCLE        20
Info: FIRST LDB TIMESTEP     100
Info: LAST LDB TIMESTEP     -1
Info: HOM BACKGROUND SCALING 1
Info: MIN ATOMS PER PATCH    40
Info: INITIAL TEMPERATURE    0
Info: CENTER OF MASS MOVING INITIALLY? NO
Info: DIELECTRIC             1
Info: EXCLUDE                SCALED ONE-FOUR
Info: 1-4 ELECTROSTATICS SCALED BY 1
Info: MODIFIED 1-4 VDW PARAMETERS WILL BE USED
Info: NO DCD TRAJECTORY OUTPUT
Info: NO EXTENDED SYSTEM TRAJECTORY OUTPUT
Info: NO VELOCITY DCD OUTPUT
Info: NO FORCE DCD OUTPUT
Info: OUTPUT FILENAME        min
Info: NO RESTART FILE
Info: SWITCHING ACTIVE
Info: SWITCHING ON           15
Info: SWITCHING OFF          17
Info: PAIRLIST DISTANCE      18
Info: PAIRLIST SHRINK RATE   0.01
Info: PAIRLIST GROW RATE     0.01
Info: PAIRLIST TRIGGER       0.3
Info: PAIRLISTS PER CYCLE    2
Info: PAIRLISTS ENABLED
Info: MARGIN                 0
Info: HYDROGEN GROUP CUTOFF  2.5
Info: PATCH DIMENSION        20.5
Info: ENERGY OUTPUT STEPS    100
Info: CROSSTERM ENERGY INCLUDED IN DIHEDRAL
Info: TIMING OUTPUT STEPS    1000
Info: CONJUGATE GRADIENT MINIMIZATION ACTIVE
Info: LINE MINIMIZATION GOAL = 0.001
Info: BABY STEP SIZE = 0.01
Info: TINY STEP SIZE = 1e-06
Info: USING VERLET I (r-RESPA) MTS SCHEME.
Info: C1 SPLITTING OF LONG RANGE ELECTROSTATICS
Info: PLACING ATOMS IN PATCHES BY HYDROGEN GROUPS
Info: RANDOM NUMBER SEED     1716537368
Info: USE HYDROGEN BONDS?    NO
Info: COORDINATE PDB         /scratch/mcm/trapp/jobs/pocket_505edb66-961a-471b-9951-1c9dc164f951/RIPLIG-OUT/RIPLIG2_LEU2/sim.pdb
Info: STRUCTURE FILE         /scratch/mcm/trapp/jobs/pocket_505edb66-961a-471b-9951-1c9dc164f951/RIPLIG-OUT/RIPLIG2_LEU2/sim.psf
Info: PARAMETER file: CHARMM format!
Info: PARAMETERS             /share/apps/mcm/trapp4/trapptool/auxi/rip-script-NAMD/pdbtool/parms/charmm27.parameter
Info: USING ARITHMETIC MEAN TO COMBINE L-J SIGMA PARAMETERS
Info: SUMMARY OF PARAMETERS:
Info: 257 BONDS
Info: 656 ANGLES
Info: 1127 DIHEDRAL
Info: 70 IMPROPER
Info: 6 CROSSTERM
Info: 163 VDW
Info: 0 VDW_PAIRS
Info: 0 NBTHOLE_PAIRS
Info: STRUCTURE SUMMARY:
Info: 3298 ATOMS
Info: 3324 BONDS
Info: 6014 ANGLES
Info: 8769 DIHEDRALS
Info: 546 IMPROPERS
Info: 206 CROSSTERMS
Info: 0 EXCLUSIONS
Info: 9891 DEGREES OF FREEDOM
Info: 1647 HYDROGEN GROUPS
Info: 4 ATOMS IN LARGEST HYDROGEN GROUP
Info: 1647 MIGRATION GROUPS
Info: 4 ATOMS IN LARGEST MIGRATION GROUP
Info: TOTAL MASS = 23401.6 amu
Info: TOTAL CHARGE = -7 e
Info: REMOVING COM VELOCITY 0 0 0
Info: NONBONDED TABLE R-SQUARED SPACING: 0.0625
Info: NONBONDED TABLE SIZE: 833 POINTS
ETITLE: TS BOND ANGLE DIHED IMPRP ELECT VDW BOUNDARY MISC KINETIC TOTAL TEMP POTENTIAL TOTAL3 TEMPAVG
ENERGY: 0 446.9051 913.0447 592.4428 15.5631 -3254.0665 7099746094.3710 0.0000 0.0000 0.0000 7099744808.2603 0.0000 7099744808.2603 7099744808.2603 0.0000
ENERGY: 400 175.4858 539.5159 585.4887 31.2676 -4920.2428 -918.1776 0.0000 0.0000 0.0000 -4506.6624 0.0000 -4506.6624 -4506.6624 0.0000
ENERGY: 800 179.0743 553.9580 616.5695 35.1498 -5417.1132 -854.7599 0.0000 0.0000 0.0000 -4887.1215 0.0000 -4887.1215 -4887.1215 0.0000
ENERGY: 1200 180.8519 556.7465 632.6994 35.9695 -5603.7752 -836.6865 0.0000 0.0000 0.0000 -5034.1943 0.0000 -5034.1943 -5034.1943 0.0000
ENERGY: 1600 181.8488 569.1842 636.2600 35.6685 -5754.6045 -818.6748 0.0000 0.0000 0.0000 -5150.3178 0.0000 -5150.3178 -5150.3178 0.0000
ENERGY: 2000 182.8102 568.9161 636.3647 34.4180 -5805.8057 -822.7666 0.0000 0.0000 0.0000 -5206.0632 0.0000 -5206.0632 -5206.0632 0.0000
