Info: SIMULATION PARAMETERS:
Info: TIMESTEP               1
Info: NUMBER OF STEPS        1000
Info: STEPS PER CYCLE        10
Info: FIRST LDB TIMESTEP     50
Info: LAST LDB TIMESTEP     -1
Info: HOM BACKGROUND SCALING 1
Info: MIN ATOMS PER PATCH    40
Info: VELOCITY FILE          /scratch/mcm/trapp/jobs/pocket_1f2cd40d-8da8-4e03-b579-e495771b7375/RIPLIG-OUT/RIPLIG2_LEU2/min/min.vel
Info: CENTER OF MASS MOVING INITIALLY? NO
Info: DIELECTRIC             1
Info: EXCLUDE                SCALED ONE-FOUR
Info: 1-4 ELECTROSTATICS SCALED BY 1
Info: MODIFIED 1-4 VDW PARAMETERS WILL BE USED
Info: DCD FILENAME           heating.dcd
Info: DCD FREQUENCY          50
Info: DCD FIRST STEP         50
Info: NO EXTENDED SYSTEM TRAJECTORY OUTPUT
Info: VELOCITY DCD FILENAME    heating.vel.dcd
Info: VELOCITY DCD FREQUENCY   50
Info: VELOCITY DCD FIRST STEP  50
Info: NO FORCE DCD OUTPUT
Info: OUTPUT FILENAME        heating
Info: NO RESTART FILE
Info: SWITCHING ACTIVE
Info: SWITCHING ON           15
Info: SWITCHING OFF          17
Info: PAIRLIST DISTANCE      18
Info: PAIRLIST SHRINK RATE   0.01
Info: PAIRLIST GROW RATE     0.01
Info: PAIRLIST TRIGGER       0.3
Info: PAIRLISTS PER CYCLE    2
Info: PAIRLISTS ENABLED
Info: MARGIN                 0
Info: HYDROGEN GROUP CUTOFF  2.5
Info: PATCH DIMENSION        20.5
Info: CROSSTERM ENERGY INCLUDED IN DIHEDRAL
Info: TIMING OUTPUT STEPS    50
Info: GBIS GENERALIZED BORN IMPLICIT SOLVENT ACTIVE
Info: GBIS SOLVENT DIELECTRIC: 78.5
Info: GBIS PROTEIN DIELECTRIC: 1
Info: GBIS COULOMB RADIUS OFFSET: 0.09 Ang
Info: GBIS ION CONCENTRATION: 0.3 M
Info: GBIS DEBYE SCREENING LENGTH: 5.57102 Ang
Info: GBIS DELTA: 1
Info: GBIS BETA: 0.8
Info: GBIS GAMMA: 4.85
Info: GBIS BORN RADIUS CUTOFF: 15 Ang
Info: GBIS MAX BORN RADIUS: 30 Ang
Info: SASA SURFACE TENSION: 0.005 kcal/mol/Ang^2
Info: LANGEVIN DYNAMICS ACTIVE
Info: LANGEVIN TEMPERATURE   10
Info: LANGEVIN DAMPING COEFFICIENT IS 5 INVERSE PS
Info: LANGEVIN DYNAMICS APPLIED TO HYDROGENS
Info: FULL ELECTROSTATIC EVALUATION FREQUENCY      2
Info: USING VERLET I (r-RESPA) MTS SCHEME.
Info: C1 SPLITTING OF LONG RANGE ELECTROSTATICS
Info: PLACING ATOMS IN PATCHES BY HYDROGEN GROUPS
Info: RIGID BONDS TO HYDROGEN : ALL
Info:         ERROR TOLERANCE : 1e-08
Info:          MAX ITERATIONS : 100
Info: RIGID WATER USING SETTLE ALGORITHM
Info: NONBONDED FORCES EVALUATED EVERY 2 STEPS
Info: RANDOM NUMBER SEED     1716537425
Info: USE HYDROGEN BONDS?    NO
Info: COORDINATE PDB         /scratch/mcm/trapp/jobs/pocket_1f2cd40d-8da8-4e03-b579-e495771b7375/RIPLIG-OUT/RIPLIG2_LEU2/min/min.coor
Info: STRUCTURE FILE         /scratch/mcm/trapp/jobs/pocket_1f2cd40d-8da8-4e03-b579-e495771b7375/RIPLIG-OUT/RIPLIG2_LEU2/min/min.psf
Info: PARAMETER file: CHARMM format!
Info: PARAMETERS             /share/apps/mcm/trapp4/trapptool/auxi/rip-script-NAMD/pdbtool/parms/charmm27.parameter
Info: USING ARITHMETIC MEAN TO COMBINE L-J SIGMA PARAMETERS
Info: SUMMARY OF PARAMETERS:
Info: 257 BONDS
Info: 656 ANGLES
Info: 1127 DIHEDRAL
Info: 70 IMPROPER
Info: 6 CROSSTERM
Info: 163 VDW
Info: 0 VDW_PAIRS
Info: 0 NBTHOLE_PAIRS
Info: STRUCTURE SUMMARY:
Info: 3312 ATOMS
Info: 3337 BONDS
Info: 6042 ANGLES
Info: 8811 DIHEDRALS
Info: 542 IMPROPERS
Info: 207 CROSSTERMS
Info: 0 EXCLUSIONS
Info: 1662 RIGID BONDS
Info: 8274 DEGREES OF FREEDOM
Info: 1650 HYDROGEN GROUPS
Info: 4 ATOMS IN LARGEST HYDROGEN GROUP
Info: 1650 MIGRATION GROUPS
Info: 4 ATOMS IN LARGEST MIGRATION GROUP
Info: TOTAL MASS = 23432.7 amu
Info: TOTAL CHARGE = -6 e
Info: REMOVING COM VELOCITY 0 0 0
Info: NONBONDED TABLE R-SQUARED SPACING: 0.0625
Info: NONBONDED TABLE SIZE: 833 POINTS
TCL: Original numsteps 1000 will be ignored.
TCL: Running for 100 steps
ETITLE: TS BOND ANGLE DIHED IMPRP ELECT VDW BOUNDARY MISC KINETIC TOTAL TEMP POTENTIAL TOTAL3 TEMPAVG
ENERGY: 0 162.7476 564.9415 637.4119 31.9490 -7150.3721 -827.2407 0.0000 0.0000 78.3915 -6502.1713 9.5355 -6580.5628 -6501.4741 9.5355
ENERGY: 20 177.0302 564.8786 632.0716 23.7567 -7113.3657 -877.4635 0.0000 0.0000 92.3256 -6500.7664 11.2304 -6593.0920 -6500.1517 11.2304
ENERGY: 40 181.4638 575.4635 623.6264 26.7110 -7088.8295 -945.2594 0.0000 0.0000 120.2954 -6506.5288 14.6327 -6626.8241 -6505.8055 14.6327
ENERGY: 60 186.6111 581.5802 617.5946 25.2415 -7065.9443 -996.4237 0.0000 0.0000 134.1153 -6517.2253 16.3137 -6651.3406 -6516.5256 16.3137
ENERGY: 80 187.5542 574.7877 615.1213 23.7553 -7044.7114 -1020.6340 0.0000 0.0000 138.1535 -6525.9734 16.8049 -6664.1270 -6525.3085 16.8049
ENERGY: 100 194.1367 567.9164 609.6935 25.9757 -7037.4457 -1030.8719 0.0000 0.0000 133.8132 -6536.7822 16.2770 -6670.5954 -6535.7805 16.2770
TCL: Setting parameter langevinTemp to 35
TCL: Running for 100 steps
ETITLE: TS BOND ANGLE DIHED IMPRP ELECT VDW BOUNDARY MISC KINETIC TOTAL TEMP POTENTIAL TOTAL3 TEMPAVG
ENERGY: 100 194.1367 567.9164 609.6935 25.9757 -7037.4457 -1030.8719 0.0000 0.0000 294.7737 -6375.8217 35.8561 -6670.5954 -6374.8976 35.8561
ENERGY: 120 206.7643 642.8508 618.6995 27.3815 -7045.8545 -1013.5927 0.0000 0.0000 208.1087 -6355.6424 25.3142 -6563.7511 -6355.0975 25.3142
ENERGY: 140 211.0275 633.0191 620.8274 30.4710 -7040.5567 -1009.6305 0.0000 0.0000 215.8210 -6339.0213 26.2524 -6554.8423 -6338.1831 26.2524
ENERGY: 160 211.4657 623.7566 619.5867 31.2158 -7052.9172 -998.7864 0.0000 0.0000 238.6259 -6327.0529 29.0264 -6565.6788 -6326.3343 29.0264
ENERGY: 180 217.6122 634.4165 612.6049 29.8613 -7067.7492 -989.4402 0.0000 0.0000 242.4431 -6320.2514 29.4907 -6562.6945 -6319.1755 29.4907
ENERGY: 200 216.1705 645.9562 613.5521 32.0526 -7079.8630 -981.4236 0.0000 0.0000 240.8234 -6312.7317 29.2937 -6553.5551 -6311.8622 29.2937
TCL: Setting parameter langevinTemp to 60
TCL: Running for 100 steps
ETITLE: TS BOND ANGLE DIHED IMPRP ELECT VDW BOUNDARY MISC KINETIC TOTAL TEMP POTENTIAL TOTAL3 TEMPAVG
ENERGY: 200 216.1705 645.9562 613.5521 32.0526 -7079.8630 -981.4236 0.0000 0.0000 496.3028 -6057.2523 60.3701 -6553.5551 -6056.7973 60.3701
ENERGY: 220 240.8757 731.3212 625.4938 33.5982 -7081.4504 -962.6116 0.0000 0.0000 374.7159 -6038.0572 45.5803 -6412.7731 -6037.6541 45.5803
ENERGY: 240 247.6762 737.4591 628.3232 35.5059 -7081.9284 -970.1221 0.0000 0.0000 388.9856 -6014.1004 47.3160 -6403.0860 -6013.3008 47.3160
ENERGY: 260 242.4994 735.9804 633.4252 34.5609 -7061.9918 -992.0683 0.0000 0.0000 405.6910 -6001.9032 49.3481 -6407.5942 -6000.8757 49.3481
ENERGY: 280 246.9704 728.6724 632.7590 37.4329 -7055.6743 -992.3960 0.0000 0.0000 412.4789 -5989.7567 50.1738 -6402.2356 -5988.1589 50.1738
ENERGY: 300 248.2013 727.2882 634.3655 35.1137 -7034.0840 -1002.9577 0.0000 0.0000 416.3116 -5975.7614 50.6400 -6392.0730 -5975.2523 50.6400
TCL: Setting parameter langevinTemp to 85
TCL: Running for 100 steps
ETITLE: TS BOND ANGLE DIHED IMPRP ELECT VDW BOUNDARY MISC KINETIC TOTAL TEMP POTENTIAL TOTAL3 TEMPAVG
ENERGY: 300 248.2013 727.2882 634.3655 35.1137 -7034.0840 -1002.9577 0.0000 0.0000 698.5392 -5693.5339 84.9700 -6392.0730 -5692.7959 84.9700
ENERGY: 320 280.2558 835.3938 646.5212 40.1428 -7052.2511 -994.4550 0.0000 0.0000 580.2064 -5664.1860 70.5761 -6244.3924 -5663.1033 70.5761
ENERGY: 340 284.1953 853.2850 641.4653 40.1389 -7057.0968 -995.3448 0.0000 0.0000 590.2922 -5643.0648 71.8029 -6233.3570 -5641.2508 71.8029
ENERGY: 360 291.5872 837.3827 647.6109 40.1333 -7046.2513 -997.0463 0.0000 0.0000 604.1069 -5622.4766 73.4833 -6226.5836 -5621.9516 73.4833
ENERGY: 380 294.4142 847.8005 651.1948 42.9565 -7039.7267 -999.5165 0.0000 0.0000 601.3920 -5601.4852 73.1531 -6202.8772 -5599.0261 73.1531
ENERGY: 400 287.8258 850.4389 657.9132 46.4656 -7048.4861 -1001.9327 0.0000 0.0000 628.0950 -5579.6803 76.4012 -6207.7753 -5577.8203 76.4012
TCL: Setting parameter langevinTemp to 110
TCL: Running for 100 steps
ETITLE: TS BOND ANGLE DIHED IMPRP ELECT VDW BOUNDARY MISC KINETIC TOTAL TEMP POTENTIAL TOTAL3 TEMPAVG
ENERGY: 400 287.8258 850.4389 657.9132 46.4656 -7048.4861 -1001.9327 0.0000 0.0000 910.8379 -5296.9374 110.7939 -6207.7753 -5295.8040 110.7939
ENERGY: 420 323.2741 947.9475 667.5995 49.6576 -7045.3508 -994.9892 0.0000 0.0000 778.7316 -5273.1297 94.7246 -6051.8613 -5270.0993 94.7246
ENERGY: 440 318.4482 936.4880 671.2157 49.4255 -7032.0964 -987.3323 0.0000 0.0000 782.7903 -5261.0610 95.2183 -6043.8512 -5258.5301 95.2183
ENERGY: 460 325.3018 932.2999 675.7434 52.4919 -7049.3172 -986.9220 0.0000 0.0000 802.6798 -5247.7224 97.6376 -6050.4021 -5245.1606 97.6376
ENERGY: 480 334.7311 921.8396 677.5487 49.1237 -7035.5400 -981.0317 0.0000 0.0000 799.5420 -5233.7866 97.2559 -6033.3286 -5230.1613 97.2559
ENERGY: 500 311.9326 924.8657 677.3231 48.8824 -7021.9250 -968.8512 0.0000 0.0000 810.8430 -5216.9294 98.6306 -6027.7724 -5215.1278 98.6306
TCL: Setting parameter langevinTemp to 135
TCL: Running for 100 steps
ETITLE: TS BOND ANGLE DIHED IMPRP ELECT VDW BOUNDARY MISC KINETIC TOTAL TEMP POTENTIAL TOTAL3 TEMPAVG
ENERGY: 500 311.9326 924.8657 677.3231 48.8824 -7021.9250 -968.8512 0.0000 0.0000 1103.4724 -4924.3000 134.2259 -6027.7724 -4922.7463 134.2259
ENERGY: 520 378.2689 1033.7576 694.4494 55.8066 -7060.8496 -957.6821 0.0000 0.0000 963.2514 -4892.9979 117.1695 -5856.2492 -4891.4398 117.1695
ENERGY: 540 366.7391 1031.4947 691.8441 55.3673 -7040.0323 -950.4194 0.0000 0.0000 983.3545 -4861.6519 119.6148 -5845.0065 -4858.3727 119.6148
ENERGY: 560 353.5329 1047.2505 689.3972 57.8357 -7030.6217 -966.2795 0.0000 0.0000 1012.3408 -4836.5442 123.1407 -5848.8850 -4834.0808 123.1407
ENERGY: 580 382.1614 1048.1510 684.9911 62.8383 -7011.8526 -980.3627 0.0000 0.0000 1008.2625 -4805.8110 122.6446 -5814.0736 -4802.9691 122.6446
ENERGY: 600 380.2731 1024.1761 687.3027 57.5094 -7011.1902 -975.9553 0.0000 0.0000 1040.0500 -4797.8342 126.5112 -5837.8842 -4795.9759 126.5112
TCL: Setting parameter langevinTemp to 160
TCL: Running for 100 steps
ETITLE: TS BOND ANGLE DIHED IMPRP ELECT VDW BOUNDARY MISC KINETIC TOTAL TEMP POTENTIAL TOTAL3 TEMPAVG
ENERGY: 600 380.2731 1024.1761 687.3027 57.5094 -7011.1902 -975.9553 0.0000 0.0000 1296.7504 -4541.1338 157.7362 -5837.8842 -4538.2377 157.7362
ENERGY: 620 413.5569 1136.3532 704.0693 61.9112 -7018.5840 -966.2396 0.0000 0.0000 1164.2908 -4504.6422 141.6238 -5668.9330 -4503.0001 141.6238
ENERGY: 640 373.8921 1128.0789 707.3970 63.3651 -7021.4265 -923.2015 0.0000 0.0000 1180.9919 -4490.9030 143.6553 -5671.8948 -4486.7169 143.6553
ENERGY: 660 393.7706 1138.1856 721.0571 64.0722 -7036.4838 -917.8552 0.0000 0.0000 1172.2313 -4465.0222 142.5897 -5637.2535 -4462.3133 142.5897
ENERGY: 680 385.9040 1124.7061 719.1419 63.1341 -7020.3150 -907.4845 0.0000 0.0000 1217.6307 -4417.2826 148.1121 -5634.9133 -4415.6974 148.1121
ENERGY: 700 384.6773 1149.9259 716.2469 73.4428 -6991.7528 -943.0167 0.0000 0.0000 1221.2634 -4389.2132 148.5540 -5610.4766 -4385.1278 148.5540
TCL: Setting parameter langevinTemp to 185
TCL: Running for 100 steps
ETITLE: TS BOND ANGLE DIHED IMPRP ELECT VDW BOUNDARY MISC KINETIC TOTAL TEMP POTENTIAL TOTAL3 TEMPAVG
ENERGY: 700 384.6773 1149.9259 716.2469 73.4428 -6991.7528 -943.0167 0.0000 0.0000 1552.8797 -4057.5969 188.8916 -5610.4766 -4055.4689 188.8916
ENERGY: 720 429.9915 1252.9018 728.1758 69.9505 -6987.3978 -936.8489 0.0000 0.0000 1411.2709 -4031.9562 171.6664 -5443.2270 -4027.0849 171.6664
ENERGY: 740 452.9298 1285.2303 743.9253 71.4618 -7010.0210 -948.5087 0.0000 0.0000 1398.3546 -4006.6280 170.0952 -5404.9826 -4001.4134 170.0952
ENERGY: 760 435.7213 1259.9315 723.4134 74.5923 -6983.4275 -954.4789 0.0000 0.0000 1431.2319 -4013.0159 174.0944 -5444.2479 -4006.3941 174.0944
ENERGY: 780 448.7420 1255.6063 726.4968 73.8743 -6987.1686 -935.7895 0.0000 0.0000 1427.3385 -3990.9002 173.6208 -5418.2388 -3986.7007 173.6208
ENERGY: 800 465.3660 1234.2572 733.4017 74.9130 -6972.0171 -949.9392 0.0000 0.0000 1448.2552 -3965.7632 176.1651 -5414.0184 -3959.7936 176.1651
TCL: Setting parameter langevinTemp to 210
TCL: Running for 100 steps
ETITLE: TS BOND ANGLE DIHED IMPRP ELECT VDW BOUNDARY MISC KINETIC TOTAL TEMP POTENTIAL TOTAL3 TEMPAVG
ENERGY: 800 465.3660 1234.2572 733.4017 74.9130 -6972.0171 -949.9392 0.0000 0.0000 1763.7404 -3650.2780 214.5406 -5414.0184 -3647.5703 214.5406
ENERGY: 820 463.6883 1334.4449 732.8634 76.8880 -6961.8566 -907.6248 0.0000 0.0000 1637.1949 -3624.4019 199.1477 -5261.5968 -3621.2691 199.1477
ENERGY: 840 488.8182 1305.0099 756.3958 79.6953 -6964.1747 -903.9347 0.0000 0.0000 1643.2127 -3594.9774 199.8797 -5238.1901 -3593.9561 199.8797
ENERGY: 860 484.3704 1355.9071 772.9990 80.3412 -6993.1769 -897.8474 0.0000 0.0000 1650.2184 -3547.1882 200.7319 -5197.4067 -3544.5453 200.7319
ENERGY: 880 480.7167 1380.3504 756.0812 74.2292 -6979.2197 -918.8601 0.0000 0.0000 1644.3334 -3562.3689 200.0160 -5206.7023 -3559.7793 200.0160
ENERGY: 900 488.7848 1365.9239 765.3728 76.8413 -6981.5081 -919.9836 0.0000 0.0000 1661.5664 -3543.0027 202.1122 -5204.5690 -3538.6706 202.1122
TCL: Setting parameter langevinTemp to 235
TCL: Running for 100 steps
ETITLE: TS BOND ANGLE DIHED IMPRP ELECT VDW BOUNDARY MISC KINETIC TOTAL TEMP POTENTIAL TOTAL3 TEMPAVG
ENERGY: 900 488.7848 1365.9239 765.3728 76.8413 -6981.5081 -919.9836 0.0000 0.0000 1928.9950 -3275.5740 234.6421 -5204.5690 -3271.5965 234.6421
ENERGY: 920 514.3425 1437.0647 768.0467 83.1844 -6977.1268 -898.8880 0.0000 0.0000 1835.3929 -3237.9835 223.2564 -5073.3765 -3233.0183 223.2564
ENERGY: 940 514.0679 1472.6810 790.6257 89.7788 -6990.1790 -893.1166 0.0000 0.0000 1812.6481 -3203.4942 220.4897 -5016.1423 -3197.3637 220.4897
ENERGY: 960 523.3572 1464.9153 787.9387 94.1846 -6963.1166 -894.9994 0.0000 0.0000 1828.7435 -3158.9767 222.4476 -4987.7203 -3156.3828 222.4476
ENERGY: 980 504.2711 1468.0597 791.7037 86.6653 -6973.2610 -894.4991 0.0000 0.0000 1868.1264 -3148.9339 227.2381 -5017.0603 -3144.6450 227.2381
ENERGY: 1000 535.5318 1444.8104 788.2103 95.2049 -6953.3735 -904.8362 0.0000 0.0000 1855.2292 -3139.2231 225.6693 -4994.4522 -3135.0487 225.6693
TCL: Setting parameter langevinTemp to 260
TCL: Running for 100 steps
ETITLE: TS BOND ANGLE DIHED IMPRP ELECT VDW BOUNDARY MISC KINETIC TOTAL TEMP POTENTIAL TOTAL3 TEMPAVG
ENERGY: 1000 535.5318 1444.8104 788.2103 95.2049 -6953.3735 -904.8362 0.0000 0.0000 2143.1293 -2851.3230 260.6893 -4994.4522 -2846.6729 260.6893
ENERGY: 1020 546.6681 1574.1343 805.6199 97.3069 -6946.5135 -889.2477 0.0000 0.0000 2005.5865 -2806.4455 243.9587 -4812.0320 -2800.4526 243.9587
ENERGY: 1040 575.1437 1572.3020 788.2455 97.9013 -6952.7669 -902.0649 0.0000 0.0000 1999.5768 -2821.6625 243.2277 -4821.2393 -2815.8947 243.2277
ENERGY: 1060 539.0639 1570.2546 799.5474 92.9223 -6963.5363 -903.8720 0.0000 0.0000 2037.8038 -2827.8164 247.8776 -4865.6202 -2821.4924 247.8776
ENERGY: 1080 568.8328 1565.8780 800.4496 101.2530 -6961.4076 -903.4549 0.0000 0.0000 2053.1725 -2775.2766 249.7470 -4828.4491 -2770.9045 249.7470
ENERGY: 1100 550.1771 1606.1404 792.4996 97.2104 -6950.7111 -890.3419 0.0000 0.0000 2072.3438 -2722.6818 252.0790 -4795.0255 -2718.4050 252.0790
TCL: Setting parameter langevinTemp to 285
TCL: Running for 100 steps
ETITLE: TS BOND ANGLE DIHED IMPRP ELECT VDW BOUNDARY MISC KINETIC TOTAL TEMP POTENTIAL TOTAL3 TEMPAVG
ENERGY: 1100 550.1771 1606.1404 792.4996 97.2104 -6950.7111 -890.3419 0.0000 0.0000 2365.3822 -2429.6433 287.7241 -4795.0255 -2424.7981 287.7241
ENERGY: 1120 569.4260 1671.6962 826.1262 116.3436 -6959.2163 -877.1410 0.0000 0.0000 2272.9065 -2379.8589 276.4754 -4652.7654 -2369.1380 276.4754
ENERGY: 1140 603.4830 1679.7906 837.9436 98.5710 -6937.9371 -878.5565 0.0000 0.0000 2270.3312 -2326.3742 276.1621 -4596.7054 -2319.4853 276.1621
ENERGY: 1160 609.0757 1709.8072 819.7542 108.4730 -6954.5034 -908.2981 0.0000 0.0000 2281.3788 -2334.3125 277.5059 -4615.6913 -2326.0482 277.5059
ENERGY: 1180 617.6531 1654.2957 829.4080 110.3739 -6935.6063 -892.5440 0.0000 0.0000 2309.8055 -2306.6140 280.9637 -4616.4196 -2296.8924 280.9637
ENERGY: 1200 604.2835 1690.1681 844.2503 108.0957 -6927.6987 -891.6930 0.0000 0.0000 2265.4982 -2307.0959 275.5742 -4572.5941 -2301.4059 275.5742
TCL: Setting parameter firsttimestep to 0
