Info: SIMULATION PARAMETERS:
Info: TIMESTEP               1
Info: NUMBER OF STEPS        2000
Info: STEPS PER CYCLE        20
Info: FIRST LDB TIMESTEP     100
Info: LAST LDB TIMESTEP     -1
Info: HOM BACKGROUND SCALING 1
Info: MIN ATOMS PER PATCH    40
Info: INITIAL TEMPERATURE    0
Info: CENTER OF MASS MOVING INITIALLY? NO
Info: DIELECTRIC             1
Info: EXCLUDE                SCALED ONE-FOUR
Info: 1-4 ELECTROSTATICS SCALED BY 1
Info: MODIFIED 1-4 VDW PARAMETERS WILL BE USED
Info: NO DCD TRAJECTORY OUTPUT
Info: NO EXTENDED SYSTEM TRAJECTORY OUTPUT
Info: NO VELOCITY DCD OUTPUT
Info: NO FORCE DCD OUTPUT
Info: OUTPUT FILENAME        min
Info: NO RESTART FILE
Info: SWITCHING ACTIVE
Info: SWITCHING ON           15
Info: SWITCHING OFF          17
Info: PAIRLIST DISTANCE      18
Info: PAIRLIST SHRINK RATE   0.01
Info: PAIRLIST GROW RATE     0.01
Info: PAIRLIST TRIGGER       0.3
Info: PAIRLISTS PER CYCLE    2
Info: PAIRLISTS ENABLED
Info: MARGIN                 0
Info: HYDROGEN GROUP CUTOFF  2.5
Info: PATCH DIMENSION        20.5
Info: ENERGY OUTPUT STEPS    100
Info: CROSSTERM ENERGY INCLUDED IN DIHEDRAL
Info: TIMING OUTPUT STEPS    1000
Info: CONJUGATE GRADIENT MINIMIZATION ACTIVE
Info: LINE MINIMIZATION GOAL = 0.001
Info: BABY STEP SIZE = 0.01
Info: TINY STEP SIZE = 1e-06
Info: USING VERLET I (r-RESPA) MTS SCHEME.
Info: C1 SPLITTING OF LONG RANGE ELECTROSTATICS
Info: PLACING ATOMS IN PATCHES BY HYDROGEN GROUPS
Info: RANDOM NUMBER SEED     1716537370
Info: USE HYDROGEN BONDS?    NO
Info: COORDINATE PDB         /scratch/mcm/trapp/jobs/pocket_1f2cd40d-8da8-4e03-b579-e495771b7375/RIPLIG-OUT/RIPLIG2_LEU2/sim.pdb
Info: STRUCTURE FILE         /scratch/mcm/trapp/jobs/pocket_1f2cd40d-8da8-4e03-b579-e495771b7375/RIPLIG-OUT/RIPLIG2_LEU2/sim.psf
Info: PARAMETER file: CHARMM format!
Info: PARAMETERS             /share/apps/mcm/trapp4/trapptool/auxi/rip-script-NAMD/pdbtool/parms/charmm27.parameter
Info: USING ARITHMETIC MEAN TO COMBINE L-J SIGMA PARAMETERS
Info: SUMMARY OF PARAMETERS:
Info: 257 BONDS
Info: 656 ANGLES
Info: 1127 DIHEDRAL
Info: 70 IMPROPER
Info: 6 CROSSTERM
Info: 163 VDW
Info: 0 VDW_PAIRS
Info: 0 NBTHOLE_PAIRS
Info: STRUCTURE SUMMARY:
Info: 3312 ATOMS
Info: 3337 BONDS
Info: 6042 ANGLES
Info: 8811 DIHEDRALS
Info: 542 IMPROPERS
Info: 207 CROSSTERMS
Info: 0 EXCLUSIONS
Info: 9933 DEGREES OF FREEDOM
Info: 1650 HYDROGEN GROUPS
Info: 4 ATOMS IN LARGEST HYDROGEN GROUP
Info: 1650 MIGRATION GROUPS
Info: 4 ATOMS IN LARGEST MIGRATION GROUP
Info: TOTAL MASS = 23432.7 amu
Info: TOTAL CHARGE = -6 e
Info: REMOVING COM VELOCITY 0 0 0
Info: NONBONDED TABLE R-SQUARED SPACING: 0.0625
Info: NONBONDED TABLE SIZE: 833 POINTS
ETITLE: TS BOND ANGLE DIHED IMPRP ELECT VDW BOUNDARY MISC KINETIC TOTAL TEMP POTENTIAL TOTAL3 TEMPAVG
ENERGY: 0 416.2954 1026.9468 570.2105 27.2946 -3556.6400 2703234007.0889 0.0000 0.0000 0.0000 2703232491.1962 0.0000 2703232491.1962 2703232491.1962 0.0000
ENERGY: 400 179.0269 542.2565 596.3414 27.5895 -4961.3920 -918.3229 0.0000 0.0000 0.0000 -4534.5005 0.0000 -4534.5005 -4534.5005 0.0000
ENERGY: 800 180.5636 551.1545 619.7461 30.0035 -5358.7825 -872.5309 0.0000 0.0000 0.0000 -4849.8457 0.0000 -4849.8457 -4849.8457 0.0000
ENERGY: 1200 180.7555 556.4748 629.0240 31.8450 -5543.4872 -847.6113 0.0000 0.0000 0.0000 -4992.9992 0.0000 -4992.9992 -4992.9992 0.0000
ENERGY: 1600 184.9656 565.9144 633.5320 32.0349 -5650.9628 -840.6560 0.0000 0.0000 0.0000 -5075.1718 0.0000 -5075.1718 -5075.1718 0.0000
ENERGY: 2000 185.0445 565.4235 637.4745 31.9780 -5725.2568 -827.9972 0.0000 0.0000 0.0000 -5133.3335 0.0000 -5133.3335 -5133.3335 0.0000
