Info: SIMULATION PARAMETERS:
Info: TIMESTEP               1
Info: NUMBER OF STEPS        1000
Info: STEPS PER CYCLE        10
Info: FIRST LDB TIMESTEP     50
Info: LAST LDB TIMESTEP     -1
Info: HOM BACKGROUND SCALING 1
Info: MIN ATOMS PER PATCH    40
Info: VELOCITY FILE          /scratch/mcm/trapp/jobs/pocket_1f2cd40d-8da8-4e03-b579-e495771b7375/RIPLIG-OUT/RIPLIG0_LEU0/min/min.vel
Info: CENTER OF MASS MOVING INITIALLY? NO
Info: DIELECTRIC             1
Info: EXCLUDE                SCALED ONE-FOUR
Info: 1-4 ELECTROSTATICS SCALED BY 1
Info: MODIFIED 1-4 VDW PARAMETERS WILL BE USED
Info: DCD FILENAME           heating.dcd
Info: DCD FREQUENCY          50
Info: DCD FIRST STEP         50
Info: NO EXTENDED SYSTEM TRAJECTORY OUTPUT
Info: VELOCITY DCD FILENAME    heating.vel.dcd
Info: VELOCITY DCD FREQUENCY   50
Info: VELOCITY DCD FIRST STEP  50
Info: NO FORCE DCD OUTPUT
Info: OUTPUT FILENAME        heating
Info: NO RESTART FILE
Info: SWITCHING ACTIVE
Info: SWITCHING ON           15
Info: SWITCHING OFF          17
Info: PAIRLIST DISTANCE      18
Info: PAIRLIST SHRINK RATE   0.01
Info: PAIRLIST GROW RATE     0.01
Info: PAIRLIST TRIGGER       0.3
Info: PAIRLISTS PER CYCLE    2
Info: PAIRLISTS ENABLED
Info: MARGIN                 0
Info: HYDROGEN GROUP CUTOFF  2.5
Info: PATCH DIMENSION        20.5
Info: CROSSTERM ENERGY INCLUDED IN DIHEDRAL
Info: TIMING OUTPUT STEPS    50
Info: GBIS GENERALIZED BORN IMPLICIT SOLVENT ACTIVE
Info: GBIS SOLVENT DIELECTRIC: 78.5
Info: GBIS PROTEIN DIELECTRIC: 1
Info: GBIS COULOMB RADIUS OFFSET: 0.09 Ang
Info: GBIS ION CONCENTRATION: 0.3 M
Info: GBIS DEBYE SCREENING LENGTH: 5.57102 Ang
Info: GBIS DELTA: 1
Info: GBIS BETA: 0.8
Info: GBIS GAMMA: 4.85
Info: GBIS BORN RADIUS CUTOFF: 15 Ang
Info: GBIS MAX BORN RADIUS: 30 Ang
Info: SASA SURFACE TENSION: 0.005 kcal/mol/Ang^2
Info: LANGEVIN DYNAMICS ACTIVE
Info: LANGEVIN TEMPERATURE   10
Info: LANGEVIN DAMPING COEFFICIENT IS 5 INVERSE PS
Info: LANGEVIN DYNAMICS APPLIED TO HYDROGENS
Info: FULL ELECTROSTATIC EVALUATION FREQUENCY      2
Info: USING VERLET I (r-RESPA) MTS SCHEME.
Info: C1 SPLITTING OF LONG RANGE ELECTROSTATICS
Info: PLACING ATOMS IN PATCHES BY HYDROGEN GROUPS
Info: RIGID BONDS TO HYDROGEN : ALL
Info:         ERROR TOLERANCE : 1e-08
Info:          MAX ITERATIONS : 100
Info: RIGID WATER USING SETTLE ALGORITHM
Info: NONBONDED FORCES EVALUATED EVERY 2 STEPS
Info: RANDOM NUMBER SEED     1716533769
Info: USE HYDROGEN BONDS?    NO
Info: COORDINATE PDB         /scratch/mcm/trapp/jobs/pocket_1f2cd40d-8da8-4e03-b579-e495771b7375/RIPLIG-OUT/RIPLIG0_LEU0/min/min.coor
Info: STRUCTURE FILE         /scratch/mcm/trapp/jobs/pocket_1f2cd40d-8da8-4e03-b579-e495771b7375/RIPLIG-OUT/RIPLIG0_LEU0/min/min.psf
Info: PARAMETER file: CHARMM format!
Info: PARAMETERS             /share/apps/mcm/trapp4/trapptool/auxi/rip-script-NAMD/pdbtool/parms/charmm27.parameter
Info: USING ARITHMETIC MEAN TO COMBINE L-J SIGMA PARAMETERS
Info: SUMMARY OF PARAMETERS:
Info: 257 BONDS
Info: 656 ANGLES
Info: 1127 DIHEDRAL
Info: 70 IMPROPER
Info: 6 CROSSTERM
Info: 163 VDW
Info: 0 VDW_PAIRS
Info: 0 NBTHOLE_PAIRS
Info: STRUCTURE SUMMARY:
Info: 3312 ATOMS
Info: 3337 BONDS
Info: 6042 ANGLES
Info: 8811 DIHEDRALS
Info: 542 IMPROPERS
Info: 207 CROSSTERMS
Info: 0 EXCLUSIONS
Info: 1662 RIGID BONDS
Info: 8274 DEGREES OF FREEDOM
Info: 1650 HYDROGEN GROUPS
Info: 4 ATOMS IN LARGEST HYDROGEN GROUP
Info: 1650 MIGRATION GROUPS
Info: 4 ATOMS IN LARGEST MIGRATION GROUP
Info: TOTAL MASS = 23432.7 amu
Info: TOTAL CHARGE = -6 e
Info: REMOVING COM VELOCITY 0 0 0
Info: NONBONDED TABLE R-SQUARED SPACING: 0.0625
Info: NONBONDED TABLE SIZE: 833 POINTS
TCL: Original numsteps 1000 will be ignored.
TCL: Running for 100 steps
ETITLE: TS BOND ANGLE DIHED IMPRP ELECT VDW BOUNDARY MISC KINETIC TOTAL TEMP POTENTIAL TOTAL3 TEMPAVG
ENERGY: 0 162.0472 564.6474 648.4920 33.6288 -7141.2244 -842.8424 0.0000 0.0000 81.9412 -6493.3103 9.9673 -6575.2514 -6492.6054 9.9673
ENERGY: 20 176.5247 564.2712 642.5652 24.5758 -7104.2331 -888.1501 0.0000 0.0000 91.4005 -6493.0457 11.1179 -6584.4462 -6492.4535 11.1179
ENERGY: 40 183.1177 576.2302 634.6842 27.7928 -7083.0870 -955.1742 0.0000 0.0000 117.1201 -6499.3163 14.2464 -6616.4364 -6498.6140 14.2464
ENERGY: 60 187.6593 572.1187 630.0289 26.6469 -7054.1624 -998.7308 0.0000 0.0000 126.6912 -6509.7483 15.4107 -6636.4395 -6509.1795 15.4107
ENERGY: 80 187.1307 578.4632 625.8549 24.6064 -7033.6740 -1032.4101 0.0000 0.0000 130.2108 -6519.8182 15.8388 -6650.0290 -6519.0092 15.8388
ENERGY: 100 194.9383 567.5234 618.4612 26.7257 -7023.4126 -1043.5234 0.0000 0.0000 129.9288 -6529.3586 15.8045 -6659.2874 -6528.5895 15.8045
TCL: Setting parameter langevinTemp to 35
TCL: Running for 100 steps
ETITLE: TS BOND ANGLE DIHED IMPRP ELECT VDW BOUNDARY MISC KINETIC TOTAL TEMP POTENTIAL TOTAL3 TEMPAVG
ENERGY: 100 194.9383 567.5234 618.4612 26.7257 -7023.4126 -1043.5234 0.0000 0.0000 289.4372 -6369.8502 35.2070 -6659.2874 -6368.8794 35.2070
ENERGY: 120 216.2995 641.1192 631.2244 28.3799 -7034.1683 -1031.5147 0.0000 0.0000 200.9748 -6347.6851 24.4465 -6548.6599 -6347.1533 24.4465
ENERGY: 140 211.0586 639.6326 633.3961 29.5333 -7040.8485 -1013.9509 0.0000 0.0000 212.1211 -6329.0578 25.8023 -6541.1789 -6328.1737 25.8023
ENERGY: 160 213.3098 630.3741 630.7377 31.6205 -7043.8784 -1010.4208 0.0000 0.0000 231.5494 -6316.7077 28.1656 -6548.2570 -6315.8702 28.1656
ENERGY: 180 207.7046 633.2426 630.6328 30.6834 -7046.8192 -1001.1748 0.0000 0.0000 238.7959 -6306.9348 29.0470 -6545.7307 -6305.9449 29.0470
ENERGY: 200 212.9828 636.1811 629.1732 28.2106 -7050.8055 -993.4785 0.0000 0.0000 240.7905 -6296.9457 29.2897 -6537.7362 -6296.2101 29.2897
TCL: Setting parameter langevinTemp to 60
TCL: Running for 100 steps
ETITLE: TS BOND ANGLE DIHED IMPRP ELECT VDW BOUNDARY MISC KINETIC TOTAL TEMP POTENTIAL TOTAL3 TEMPAVG
ENERGY: 200 212.9828 636.1811 629.1732 28.2106 -7050.8055 -993.4785 0.0000 0.0000 497.2650 -6040.4713 60.4871 -6537.7362 -6040.0364 60.4871
ENERGY: 220 239.7897 732.7364 635.5292 33.8092 -7059.3848 -981.5952 0.0000 0.0000 381.3500 -6017.7655 46.3873 -6399.1155 -6017.1240 46.3873
ENERGY: 240 249.1934 729.3967 643.6354 36.2925 -7056.4524 -990.0702 0.0000 0.0000 388.0006 -6000.0040 47.1962 -6388.0046 -5999.0028 47.1962
ENERGY: 260 242.3244 736.2416 644.3837 37.4071 -7045.2250 -1000.2696 0.0000 0.0000 407.5482 -5977.5897 49.5740 -6385.1379 -5976.4019 49.5740
ENERGY: 280 255.7500 728.8840 647.0043 36.7845 -7045.5335 -1006.1189 0.0000 0.0000 414.1965 -5969.0330 50.3827 -6383.2296 -5967.3235 50.3827
ENERGY: 300 254.2680 738.1492 647.9035 35.0024 -7048.5121 -1006.6606 0.0000 0.0000 423.6163 -5956.2333 51.5285 -6379.8496 -5955.0087 51.5285
TCL: Setting parameter langevinTemp to 85
TCL: Running for 100 steps
ETITLE: TS BOND ANGLE DIHED IMPRP ELECT VDW BOUNDARY MISC KINETIC TOTAL TEMP POTENTIAL TOTAL3 TEMPAVG
ENERGY: 300 254.2680 738.1492 647.9035 35.0024 -7048.5121 -1006.6606 0.0000 0.0000 677.3289 -5702.5207 82.3900 -6379.8496 -5701.5863 82.3900
ENERGY: 320 288.6884 828.1138 648.6311 38.2024 -7058.5999 -991.3844 0.0000 0.0000 572.0715 -5674.2770 69.5865 -6246.3485 -5673.5547 69.5865
ENERGY: 340 279.0700 838.8582 655.0641 43.4365 -7044.6354 -987.3466 0.0000 0.0000 567.0666 -5648.4866 68.9777 -6215.5532 -5647.5014 68.9777
ENERGY: 360 290.2819 838.4575 654.0241 44.6107 -7046.5528 -992.9726 0.0000 0.0000 585.0468 -5627.1045 71.1648 -6212.1513 -5626.5057 71.1648
ENERGY: 380 306.4027 826.1662 657.9684 45.2980 -7044.0343 -993.8723 0.0000 0.0000 586.9246 -5615.1465 71.3933 -6202.0712 -5615.0534 71.3933
ENERGY: 400 276.8893 830.2532 658.6493 42.1993 -7020.4955 -998.6301 0.0000 0.0000 617.2926 -5593.8420 75.0872 -6211.1346 -5591.3335 75.0872
TCL: Setting parameter langevinTemp to 110
TCL: Running for 100 steps
ETITLE: TS BOND ANGLE DIHED IMPRP ELECT VDW BOUNDARY MISC KINETIC TOTAL TEMP POTENTIAL TOTAL3 TEMPAVG
ENERGY: 400 276.8893 830.2532 658.6493 42.1993 -7020.4955 -998.6301 0.0000 0.0000 908.8868 -5302.2477 110.5566 -6211.1346 -5301.0155 110.5566
ENERGY: 420 333.4603 896.7248 671.9540 48.1677 -7007.5808 -981.6581 0.0000 0.0000 764.1399 -5274.7923 92.9497 -6038.9322 -5273.2877 92.9497
ENERGY: 440 320.8433 957.6117 677.4607 51.0638 -7025.9616 -1000.0458 0.0000 0.0000 770.6705 -5248.3575 93.7440 -6019.0280 -5247.2806 93.7440
ENERGY: 460 315.9772 914.1223 676.3308 55.2456 -7007.9651 -987.9943 0.0000 0.0000 806.2456 -5228.0379 98.0714 -6034.2835 -5225.5148 98.0714
ENERGY: 480 338.1103 934.9059 678.4404 49.3495 -7036.4780 -976.8129 0.0000 0.0000 804.7539 -5207.7309 97.8899 -6012.4848 -5205.9953 97.8899
ENERGY: 500 323.8544 933.4772 669.8667 51.0727 -7028.5742 -977.8500 0.0000 0.0000 833.1807 -5194.9724 101.3477 -6028.1531 -5190.9478 101.3477
TCL: Setting parameter langevinTemp to 135
TCL: Running for 100 steps
ETITLE: TS BOND ANGLE DIHED IMPRP ELECT VDW BOUNDARY MISC KINETIC TOTAL TEMP POTENTIAL TOTAL3 TEMPAVG
ENERGY: 500 323.8544 933.4772 669.8667 51.0727 -7028.5742 -977.8500 0.0000 0.0000 1102.4224 -4925.7307 134.0982 -6028.1531 -4924.1795 134.0982
ENERGY: 520 350.0334 1024.8440 691.7454 58.6696 -7008.6560 -970.8653 0.0000 0.0000 959.5977 -4894.6313 116.7251 -5854.2290 -4893.8374 116.7251
ENERGY: 540 360.3135 1029.3058 687.6082 62.1132 -6997.4320 -979.3084 0.0000 0.0000 966.4088 -4870.9909 117.5535 -5837.3997 -4866.7021 117.5535
ENERGY: 560 341.6740 1054.5671 683.3626 57.7190 -6992.6175 -971.8928 0.0000 0.0000 990.3778 -4836.8098 120.4691 -5827.1876 -4834.7707 120.4691
ENERGY: 580 372.7247 1023.1970 678.7660 62.8961 -6984.7192 -984.4863 0.0000 0.0000 1011.7968 -4819.8249 123.0745 -5831.6217 -4817.2050 123.0745
ENERGY: 600 369.6891 1026.1179 679.3834 57.4241 -6991.0017 -979.5315 0.0000 0.0000 1022.9351 -4814.9835 124.4294 -5837.9186 -4810.8271 124.4294
TCL: Setting parameter langevinTemp to 160
TCL: Running for 100 steps
ETITLE: TS BOND ANGLE DIHED IMPRP ELECT VDW BOUNDARY MISC KINETIC TOTAL TEMP POTENTIAL TOTAL3 TEMPAVG
ENERGY: 600 369.6891 1026.1179 679.3834 57.4241 -6991.0017 -979.5315 0.0000 0.0000 1286.7164 -4551.2022 156.5156 -5837.9186 -4548.5243 156.5156
ENERGY: 620 395.0348 1113.2092 684.5616 63.4372 -7001.4163 -955.6447 0.0000 0.0000 1168.1098 -4532.7084 142.0884 -5700.8182 -4529.8310 142.0884
ENERGY: 640 383.4999 1114.9534 696.5353 62.3632 -7007.0479 -930.5790 0.0000 0.0000 1168.4321 -4511.8431 142.1276 -5680.2752 -4506.1421 142.1276
ENERGY: 660 384.5849 1093.3698 691.5717 62.2556 -6972.1028 -930.6714 0.0000 0.0000 1198.7276 -4472.2644 145.8127 -5670.9920 -4469.0056 145.8127
ENERGY: 680 386.5522 1123.6621 690.1361 58.2841 -6975.4117 -948.9949 0.0000 0.0000 1222.0842 -4443.6881 148.6538 -5665.7722 -4440.8192 148.6538
ENERGY: 700 389.7925 1146.0520 702.9923 66.8242 -6986.7831 -940.3374 0.0000 0.0000 1217.5860 -4403.8735 148.1066 -5621.4595 -4400.4838 148.1066
TCL: Setting parameter langevinTemp to 185
TCL: Running for 100 steps
ETITLE: TS BOND ANGLE DIHED IMPRP ELECT VDW BOUNDARY MISC KINETIC TOTAL TEMP POTENTIAL TOTAL3 TEMPAVG
ENERGY: 700 389.7925 1146.0520 702.9923 66.8242 -6986.7831 -940.3374 0.0000 0.0000 1501.3908 -4120.0687 182.6285 -5621.4595 -4117.7473 182.6285
ENERGY: 720 409.1788 1241.4387 714.9255 64.1355 -6977.6870 -958.9340 0.0000 0.0000 1404.6301 -4102.3126 170.8586 -5506.9427 -4099.3267 170.8586
ENERGY: 740 432.5030 1220.2930 726.2302 72.3647 -6991.0242 -948.3632 0.0000 0.0000 1417.2929 -4070.7036 172.3989 -5487.9965 -4068.5285 172.3989
ENERGY: 760 452.3760 1247.3986 734.7635 66.1724 -6998.0313 -945.9224 0.0000 0.0000 1401.2013 -4042.0419 170.4415 -5443.2432 -4037.6195 170.4415
ENERGY: 780 448.4720 1212.6123 734.6044 73.5967 -6992.2328 -924.6178 0.0000 0.0000 1431.0738 -4016.4913 174.0752 -5447.5651 -4010.3464 174.0752
ENERGY: 800 424.6995 1238.6260 713.3991 63.2358 -6991.2370 -919.8080 0.0000 0.0000 1467.9341 -4003.1505 178.5589 -5471.0846 -3997.8134 178.5589
TCL: Setting parameter langevinTemp to 210
TCL: Running for 100 steps
ETITLE: TS BOND ANGLE DIHED IMPRP ELECT VDW BOUNDARY MISC KINETIC TOTAL TEMP POTENTIAL TOTAL3 TEMPAVG
ENERGY: 800 424.6995 1238.6260 713.3991 63.2358 -6991.2370 -919.8080 0.0000 0.0000 1731.9633 -3739.1213 210.6753 -5471.0846 -3735.7049 210.6753
ENERGY: 820 477.5255 1303.5404 747.9601 80.0276 -7005.7397 -912.5540 0.0000 0.0000 1585.2937 -3723.9464 192.8344 -5309.2401 -3720.3964 192.8344
ENERGY: 840 475.1945 1362.9337 748.4118 77.6706 -6996.9105 -917.3110 0.0000 0.0000 1554.2767 -3695.7342 189.0615 -5250.0109 -3691.4264 189.0615
ENERGY: 860 508.2709 1348.2813 744.2149 68.5968 -7003.7583 -925.9677 0.0000 0.0000 1583.4955 -3676.8665 192.6157 -5260.3620 -3674.7466 192.6157
ENERGY: 880 492.7492 1334.9164 743.7729 78.5491 -6970.1070 -930.0989 0.0000 0.0000 1599.8249 -3650.3934 194.6020 -5250.2183 -3642.5174 194.6020
ENERGY: 900 504.8880 1364.2490 742.4277 76.9438 -6989.3195 -926.1532 0.0000 0.0000 1590.5901 -3636.3743 193.4787 -5226.9644 -3630.4008 193.4787
TCL: Setting parameter langevinTemp to 235
TCL: Running for 100 steps
ETITLE: TS BOND ANGLE DIHED IMPRP ELECT VDW BOUNDARY MISC KINETIC TOTAL TEMP POTENTIAL TOTAL3 TEMPAVG
ENERGY: 900 504.8880 1364.2490 742.4277 76.9438 -6989.3195 -926.1532 0.0000 0.0000 1953.2979 -3273.6664 237.5983 -5226.9644 -3270.8351 237.5983
ENERGY: 920 516.1328 1450.9472 768.3146 84.6129 -6985.5778 -908.4153 0.0000 0.0000 1835.5749 -3238.4106 223.2785 -5073.9856 -3234.6136 223.2785
ENERGY: 940 513.8465 1467.9192 774.3640 86.3962 -6987.6021 -880.3500 0.0000 0.0000 1799.0897 -3226.3366 218.8405 -5025.4263 -3223.8745 218.8405
ENERGY: 960 506.1969 1444.9106 771.0714 84.8707 -6967.4227 -886.1733 0.0000 0.0000 1819.6575 -3226.8891 221.3423 -5046.5465 -3221.5688 221.3423
ENERGY: 980 527.1420 1441.6393 765.8193 83.8151 -6954.1889 -895.3604 0.0000 0.0000 1819.7326 -3211.4012 221.3515 -5031.1338 -3205.4639 221.3515
ENERGY: 1000 524.3625 1460.4182 767.0310 91.4278 -6932.1260 -904.8808 0.0000 0.0000 1839.4377 -3154.3296 223.7484 -4993.7673 -3147.2739 223.7484
TCL: Setting parameter langevinTemp to 260
TCL: Running for 100 steps
ETITLE: TS BOND ANGLE DIHED IMPRP ELECT VDW BOUNDARY MISC KINETIC TOTAL TEMP POTENTIAL TOTAL3 TEMPAVG
ENERGY: 1000 524.3625 1460.4182 767.0310 91.4278 -6932.1260 -904.8808 0.0000 0.0000 2218.9958 -2774.7715 269.9177 -4993.7673 -2771.2540 269.9177
ENERGY: 1020 581.0311 1601.0374 788.8559 89.9025 -6974.4516 -890.7909 0.0000 0.0000 2059.7040 -2744.7116 250.5415 -4804.4156 -2740.4406 250.5415
ENERGY: 1040 569.5919 1581.4064 797.4996 95.2889 -6974.6194 -889.6801 0.0000 0.0000 2069.0125 -2751.5002 251.6738 -4820.5127 -2745.2692 251.6738
ENERGY: 1060 560.0563 1589.2434 819.8984 102.6763 -6986.9773 -871.4290 0.0000 0.0000 2047.9669 -2738.5650 249.1138 -4786.5319 -2734.1039 249.1138
ENERGY: 1080 580.4367 1600.7471 828.9544 98.2575 -6988.1691 -909.6552 0.0000 0.0000 2089.8226 -2699.6059 254.2051 -4789.4286 -2696.4353 254.2051
ENERGY: 1100 574.3668 1613.0316 822.9988 114.9542 -6980.4912 -911.1412 0.0000 0.0000 2123.3888 -2642.8922 258.2881 -4766.2810 -2639.1484 258.2881
TCL: Setting parameter langevinTemp to 285
TCL: Running for 100 steps
ETITLE: TS BOND ANGLE DIHED IMPRP ELECT VDW BOUNDARY MISC KINETIC TOTAL TEMP POTENTIAL TOTAL3 TEMPAVG
ENERGY: 1100 574.3668 1613.0316 822.9988 114.9542 -6980.4912 -911.1412 0.0000 0.0000 2303.1542 -2463.1268 280.1547 -4766.2810 -2459.1945 280.1547
ENERGY: 1120 617.7859 1729.3654 834.3928 86.4752 -6986.5420 -904.3451 0.0000 0.0000 2188.5022 -2434.3656 266.2085 -4622.8678 -2425.6732 266.2085
ENERGY: 1140 599.1140 1692.4085 813.3703 111.1458 -6976.4141 -874.0007 0.0000 0.0000 2202.1882 -2432.1879 267.8732 -4634.3761 -2428.7683 267.8732
ENERGY: 1160 624.9100 1668.0862 821.6273 88.3596 -6963.5590 -880.0742 0.0000 0.0000 2235.5844 -2405.0657 271.9355 -4640.6501 -2399.4672 271.9355
ENERGY: 1180 632.2646 1646.6540 817.3373 97.3998 -6959.1716 -904.6958 0.0000 0.0000 2289.9456 -2380.2661 278.5480 -4670.2118 -2371.4914 278.5480
ENERGY: 1200 593.5981 1685.0395 834.7881 90.4375 -6946.9921 -897.7875 0.0000 0.0000 2237.3268 -2403.5898 272.1475 -4640.9166 -2398.0951 272.1475
TCL: Setting parameter firsttimestep to 0
